%MEM=64GB
%CPU=0-15
%RWF=/scratch/04843/aannabe/gaussian/
%Int=/scratch/04843/aannabe/gaussian/
%D2E=/scratch/04843/aannabe/gaussian/
%NoSave
%CHK=CrH

!Make sure DKHSO is turned off
#P ROCCSD(T)=(maxcyc=150, Full,   ReadAmplitudes)/Gen 5d 7f SCF=(maxcycles=300) Integral(NoXCTest) MaxDisk=500GB Pop=Regular Pseudo=Read Guess=Read !IOp(5/15=2) 

CrH

0 6
Cr 0.0 0.0 0.0
H  0.0 0.0 1.40

Cr     0 
S   1   1.00
      1.35540E+08            1.000    
S   1   1.00
      2.42404E+07            1.000    
S   1   1.00
      5.41227E+06            1.000    
S   1   1.00
      1.44792E+06            1.000    
S   1   1.00
 448199.0000000              1.000    
S   1   1.00
 155899.0000000              1.000    
S   1   1.00
  59479.6000000              1.000    
S   1   1.00
  24408.1000000              1.000    
S   1   1.00
  10607.0000000              1.000    
S   1   1.00
   4823.0800000              1.000    
S   1   1.00
   2274.0800000              1.000    
S   1   1.00
   1104.5400000              1.000    
S   1   1.00
    550.0990000              1.000    
S   1   1.00
    280.0100000              1.000    
S   1   1.00
    145.3300000              1.000    
S   1   1.00
     76.7551000              1.000    
S   1   1.00
     41.1594000              1.000    
S   1   1.00
     22.3445000              1.000    
S   1   1.00
     12.2293000              1.000    
S   1   1.00
      6.7077700              1.000    
S   1   1.00
      3.6569400              1.000    
S   1   1.00
      1.9597800              1.000    
S   1   1.00
      1.0175800              1.000    
S   1   1.00
      0.5129130              1.000    
S   1   1.00
      0.1947980              1.000    
S   1   1.00
      0.1109690              1.000    
S   1   1.00
      0.0521230              1.000    
S   1   1.00
      0.0244890              1.0000000        
S   1   1.00
      5.2776000              1.0000000        
S   1   1.00
      1.7542000              1.0000000        
S   1   1.00
      0.0115100              1.0000000        
P   1   1.00
  72029.6000000              1.000       
P   1   1.00
  17890.9000000              1.000       
P   1   1.00
   5678.2800000              1.000       
P   1   1.00
   2138.7500000              1.000       
P   1   1.00
    905.8550000              1.000       
P   1   1.00
    415.6450000              1.000       
P   1   1.00
    201.6950000              1.000       
P   1   1.00
    102.0400000              1.000       
P   1   1.00
     53.3955000              1.000       
P   1   1.00
     28.7570000              1.000       
P   1   1.00
     15.8536000              1.000       
P   1   1.00
      8.8638500              1.000       
P   1   1.00
      4.9433400              1.000       
P   1   1.00
      2.6973200              1.000       
P   1   1.00
      1.4364300              1.000       
P   1   1.00
      0.7485180              1.000       
P   1   1.00
      0.3733100              1.000       
P   1   1.00
      0.1577460              1.000       
P   1   1.00
      0.0674450              1.000       
P   1   1.00
      0.0285490              1.0000000        
P   1   1.00
      7.7063000              1.0000000        
P   1   1.00
      2.2690000              1.0000000        
P   1   1.00
      0.0120800              1.0000000        
D   1   1.00
    408.6230000              1.000       
D   1   1.00
    120.7610000              1.000       
D   1   1.00
     46.4460000              1.000       
D   1   1.00
     20.2390000              1.000       
D   1   1.00
      9.3638100              1.000       
D   1   1.00
      4.5309400              1.000       
D   1   1.00
      2.2314000              1.000       
D   1   1.00
      1.0877600              1.000       
D   1   1.00
      0.5173840              1.000       
D   1   1.00
      0.2371640              1.000       
D   1   1.00
      0.1033080              1.000       
D   1   1.00
      0.0414480              1.0000000        
D   1   1.00
      5.1967000              1.0000000        
D   1   1.00
      3.1194000              1.0000000        
D   1   1.00
      0.0166300              1.0000000        
F   1   1.00
      8.1276000              1.0000000        
F   1   1.00
      3.5260000              1.0000000        
F   1   1.00
      1.5297000              1.0000000        
F   1   1.00
      0.6636000              1.0000000        
F   1   1.00
      0.2158000              1.0000000        
F   1   1.00
      0.0701800              1.0000000        
G   1   1.00
      5.5422000              1.0000000        
G   1   1.00
      2.6311000              1.0000000        
G   1   1.00
      1.2491000              1.0000000        
G   1   1.00
      0.4265000              1.0000000        
G   1   1.00
      0.1456300              1.0000000        
H   1   1.00
      5.1778000              1.0000000        
H   1   1.00
      2.3419000              1.0000000        
H   1   1.00
      0.8661000              1.0000000        
H   1   1.00
      0.3203100              1.0000000        
I   1   1.00
      5.1719000              1.0000000        
I   1   1.00
      2.0805000              1.0000000        
I   1   1.00
      0.8369200              1.0000000        
****
H     0 
S   1   1.00
    402.0000000              1.000        
S   1   1.00
     60.2400000              1.000        
S   1   1.00
     13.7300000              1.000        
S   1   1.00
      3.9050000              1.000        
S   1   1.00
      1.2830000              1.0000000        
S   1   1.00
      0.4655000              1.0000000        
S   1   1.00
      0.1811000              1.0000000        
S   1   1.00
      0.0727900              1.0000000        
S   1   1.00
      0.0207000              1.0000000        
P   1   1.00
      4.5160000              1.0000000        
P   1   1.00
      1.7120000              1.0000000        
P   1   1.00
      0.6490000              1.0000000        
P   1   1.00
      0.2460000              1.0000000        
P   1   1.00
      0.0744000              1.0000000        
D   1   1.00
      2.9500000              1.0000000        
D   1   1.00
      1.2060000              1.0000000        
D   1   1.00
      0.4930000              1.0000000        
D   1   1.00
      0.1560000              1.0000000        
F   1   1.00
      2.5060000              1.0000000        
F   1   1.00
      0.8750000              1.0000000        
F   1   1.00
      0.2740000              1.0000000        
G   1   1.00
      2.3580000              1.0000000        
G   1   1.00
      0.5430000              1.0000000        
****

Cr 0
QMC 2 10

6
1   13.07675203       14.00000000 
2   15.15807582     1258.15550380 
2    4.62785686      -98.60998187 
2   15.41136599    -6552.46055066 
2   15.38690637     5353.09061557 
3    5.24897308      183.07452839 

6
2    9.77680844   -91901.20809480 
2    9.95980111    96320.14803227 
2    8.62275214     3928.31359170 
2   12.29288144   -10977.62459544 
2   18.41316592    -1741.60409682 
2   16.38541961     4413.26493033 

6
2   12.00099996   -22156.17142851 
2   11.46524435    21551.07876111 
2   16.23852226     3703.78784703 
2   18.43861108    -1424.18632323 
2    8.88877941    -1964.93568469 
2    7.52644784      317.50498882 

6
2   11.10668370    -5435.29666496 
2    8.49801115     7350.69608766 
2   12.28065533     2443.80334995 
2    8.18853540    -5401.76770998 
2   14.34306836     3881.23075486 
2   15.24784181    -2855.87137953 
H 0
QMC 1 0

3
2   21.77696655044365   -10.85192405303825
1   21.24359508259891   1.00000000000000
3   21.24359508259891   21.24359508259891

1
2   1.0   0.0

