%MEM=160GB
%CPU=0-31
%RWF=/scratch/04843/aannabe/gaussian/
%Int=/scratch/04843/aannabe/gaussian/
%D2E=/scratch/04843/aannabe/gaussian/
%NoSave
%CHK=MnH

!Make sure DKHSO is turned off
#P ROCCSD(T)=(maxcyc=150, Full, SaveAmplitudes, ReadAmplitudes)/Gen 5d 7f SCF=(maxcycles=300, VShift=400) Integral(NoXCTest) MaxDisk=500GB Pop=Full Pseudo=Read Guess=Read !IOp(5/15=2) 

MnH

0 7
Mn 0.0 0.0 0.0
H  0.0 0.0 1.30

Mn     0 
S   1   1.00
  38448.1400000              1.000       
S   1   1.00
  13881.7100000              1.000       
S   1   1.00
   5415.0020000              1.000       
S   1   1.00
   2246.4600000              1.000       
S   1   1.00
    980.1463000              1.000       
S   1   1.00
    445.8952000              1.000       
S   1   1.00
    210.0558000              1.000       
S   1   1.00
    101.8046000              1.000       
S   1   1.00
     50.0112600              1.000       
S   1   1.00
     22.9393900              1.000       
S   1   1.00
     11.5226400              1.000       
S   1   1.00
      5.7763380              1.000       
S   1   1.00
      2.6259590              1.000       
S   1   1.00
      1.2603220              1.000       
S   1   1.00
      0.5771300              1.000       
S   1   1.00
      0.1365820              1.000       
S   1   1.00
      0.0635350              1.000       
S   1   1.00
      0.0285210              1.0000000        
S   1   1.00
      5.3389000              1.0000000        
S   1   1.00
      1.6013000              1.0000000        
S   1   1.00
      0.0128000              1.0000000        
P   1   1.00
   2688.4650000              1.000       
P   1   1.00
   1029.4900000              1.000       
P   1   1.00
    438.0708000              1.000       
P   1   1.00
    200.6153000              1.000       
P   1   1.00
     97.0076900              1.000       
P   1   1.00
     48.8705200              1.000       
P   1   1.00
     25.2928100              1.000       
P   1   1.00
     13.3538200              1.000       
P   1   1.00
      7.1317860              1.000       
P   1   1.00
      3.7643650              1.000       
P   1   1.00
      1.9462650              1.000       
P   1   1.00
      0.9854550              1.000       
P   1   1.00
      0.4818650              1.000       
P   1   1.00
      0.18822219             1.000       
P   1   1.00
      0.07753957             1.000       
P   1   1.00
      0.03154945             1.0000000        
P   1   1.00
      7.3423000              1.0000000        
P   1   1.00
      1.9340000              1.0000000        
P   1   1.00
      0.0128400              1.0000000        
D   1   1.00
    313.1090000              1.000       
D   1   1.00
     92.5276000              1.000       
D   1   1.00
     35.4191000              1.000       
D   1   1.00
     15.1577000              1.000       
D   1   1.00
      6.9096400              1.000       
D   1   1.00
      3.2725600              1.000       
D   1   1.00
      1.5493600              1.000       
D   1   1.00
      0.7170940              1.000       
D   1   1.00
      0.3193100              1.000       
D   1   1.00
      0.1341570              1.000       
D   1   1.00
      0.0514000              1.0000000        
D   1   1.00
      4.6851000              1.0000000        
D   1   1.00
      2.4217000              1.0000000        
D   1   1.00
      0.0196900              1.0000000        
F   1   1.00
      6.6540000              1.0000000        
F   1   1.00
      2.7676000              1.0000000        
F   1   1.00
      1.1511000              1.0000000        
F   1   1.00
      0.3812000              1.0000000        
F   1   1.00
      0.1262400              1.0000000        
G   1   1.00
      5.4683000              1.0000000        
G   1   1.00
      2.3327000              1.0000000        
G   1   1.00
      0.8520000              1.0000000        
G   1   1.00
      0.3111900              1.0000000        
H   1   1.00
      5.1185000              1.0000000        
H   1   1.00
      1.9660000              1.0000000        
H   1   1.00
      0.7551300              1.0000000        
****
H     0 
S   1   1.00
     82.6400000              1.000        
S   1   1.00
     12.4100000              1.000        
S   1   1.00
      2.8240000              1.000        
S   1   1.00
      0.7977000              1.0000000        
S   1   1.00
      0.2581000              1.0000000        
S   1   1.00
      0.0898900              1.0000000        
S   1   1.00
      0.0236300              1.0000000        
P   1   1.00
      2.2920000              1.0000000        
P   1   1.00
      0.8380000              1.0000000        
P   1   1.00
      0.2920000              1.0000000        
P   1   1.00
      0.0848000              1.0000000        
D   1   1.00
      2.0620000              1.0000000        
D   1   1.00
      0.6620000              1.0000000        
D   1   1.00
      0.1900000              1.0000000        
F   1   1.00
      1.3970000              1.0000000        
F   1   1.00
      0.3600000              1.0000000        
****

Mn 0
QMC 2 10

4
1 21.9061889165646  15.000
3 21.3460106502946  328.592833748469
2 21.2709151561577 -162.049880236930
2 7.90771171832952 -1.85679609726467

2
2 18.9263045646384  244.669998154192
2 8.31114792810788  33.5399867642789

2
2 20.1624493129539  162.350195446201
2 7.79269955633082  24.1593874178617
H 0
QMC 1 0

3
2   21.77696655044365   -10.85192405303825
1   21.24359508259891   1.00000000000000
3   21.24359508259891   21.24359508259891

1
2   1.0   0.0

