%MEM=80GB
%CPU=0-15
%RWF=/scratch/04843/aannabe/gaussian/
%Int=/scratch/04843/aannabe/gaussian/
%D2E=/scratch/04843/aannabe/gaussian/
%NoSave
%CHK=MnO

!Make sure DKHSO is turned off
#P ROCCSD(T)=(maxcyc=150, Full, SaveAmplitudes, ReadAmplitudes)/Gen 5d 7f SCF=(maxcycles=300) Integral(NoXCTest) MaxDisk=500GB Pop=Regular Pseudo=Read Guess=Read !IOp(5/15=2) 

MnO

0 6
Mn 0.0 0.0 0.0
O  0.0 0.0 1.20

Mn     0 
S   1   1.00
 12210500.0000000            1.000       
S   1   1.00
 1828157.0000000             1.000       
S   1   1.00
 416030.3000000              1.000       
S   1   1.00
 117843.6000000              1.000       
S   1   1.00
  38448.1400000              1.000       
S   1   1.00
  13881.7100000              1.000       
S   1   1.00
   5415.0020000              1.000       
S   1   1.00
   2246.4600000              1.000       
S   1   1.00
    980.1463000              1.000       
S   1   1.00
    445.8952000              1.000       
S   1   1.00
    210.0558000              1.000       
S   1   1.00
    101.8046000              1.000       
S   1   1.00
     50.0112600              1.000       
S   1   1.00
     22.9393900              1.000       
S   1   1.00
     11.5226400              1.000       
S   1   1.00
      5.7763380              1.000       
S   1   1.00
      2.6259590              1.000       
S   1   1.00
      1.2603220              1.000       
S   1   1.00
      0.5771300              1.000       
S   1   1.00
      0.1365820              1.000       
S   1   1.00
      0.0635350              1.000       
S   1   1.00
      0.0285210              1.0000000        
S   1   1.00
      5.3389000              1.0000000        
S   1   1.00
      1.6013000              1.0000000        
S   1   1.00
      0.0128000              1.0000000        
P   1   1.00
  35005.1200000              1.000       
P   1   1.00
   8279.4620000              1.000       
P   1   1.00
   2688.4650000              1.000       
P   1   1.00
   1029.4900000              1.000       
P   1   1.00
    438.0708000              1.000       
P   1   1.00
    200.6153000              1.000       
P   1   1.00
     97.0076900              1.000       
P   1   1.00
     48.8705200              1.000       
P   1   1.00
     25.2928100              1.000       
P   1   1.00
     13.3538200              1.000       
P   1   1.00
      7.1317860              1.000       
P   1   1.00
      3.7643650              1.000       
P   1   1.00
      1.9462650              1.000       
P   1   1.00
      0.9854550              1.000       
P   1   1.00
      0.4818650              1.000       
P   1   1.00
      0.18822219             1.000       
P   1   1.00
      0.07753957             1.000       
P   1   1.00
      0.03154945             1.0000000        
P   1   1.00
      7.3423000              1.0000000        
P   1   1.00
      1.9340000              1.0000000        
P   1   1.00
      0.0128400              1.0000000        
D   1   1.00
    313.1090000              1.000       
D   1   1.00
     92.5276000              1.000       
D   1   1.00
     35.4191000              1.000       
D   1   1.00
     15.1577000              1.000       
D   1   1.00
      6.9096400              1.000       
D   1   1.00
      3.2725600              1.000       
D   1   1.00
      1.5493600              1.000       
D   1   1.00
      0.7170940              1.000       
D   1   1.00
      0.3193100              1.000       
D   1   1.00
      0.1341570              1.000       
D   1   1.00
      0.0514000              1.0000000        
D   1   1.00
      4.6851000              1.0000000        
D   1   1.00
      2.4217000              1.0000000        
D   1   1.00
      0.0196900              1.0000000        
F   1   1.00
      6.6540000              1.0000000        
F   1   1.00
      2.7676000              1.0000000        
F   1   1.00
      1.1511000              1.0000000        
F   1   1.00
      0.3812000              1.0000000        
F   1   1.00
      0.1262400              1.0000000        
G   1   1.00
      5.4683000              1.0000000        
G   1   1.00
      2.3327000              1.0000000        
G   1   1.00
      0.8520000              1.0000000        
G   1   1.00
      0.3111900              1.0000000        
H   1   1.00
      5.1185000              1.0000000        
H   1   1.00
      1.9660000              1.0000000        
H   1   1.00
      0.7551300              1.0000000        
****
O     0 
S   1   1.00
  61420.0000000              1.000       
S   1   1.00
   9199.0000000              1.000       
S   1   1.00
   2091.0000000              1.000       
S   1   1.00
    590.9000000              1.000       
S   1   1.00
    192.3000000              1.000       
S   1   1.00
     69.3200000              1.000       
S   1   1.00
     26.9700000              1.000       
S   1   1.00
     11.1000000              1.000       
S   1   1.00
      4.6820000              1.000       
S   1   1.00
      1.4280000              1.0000000        
S   1   1.00
      0.5547000              1.0000000        
S   1   1.00
      0.2067000              1.0000000        
S   1   1.00
     12.9740000              1.0000000        
S   1   1.00
     34.9000000              1.0000000        
S   1   1.00
     93.8810000              1.0000000        
S   1   1.00
      0.0695900              1.0000000        
P   1   1.00
     63.4200000              1.000        
P   1   1.00
     14.6600000              1.000        
P   1   1.00
      4.4590000              1.000        
P   1   1.00
      1.5310000              1.0000000        
P   1   1.00
      0.5302000              1.0000000        
P   1   1.00
      0.1750000              1.0000000        
P   1   1.00
     14.4750000              1.0000000        
P   1   1.00
     42.7300000              1.0000000        
P   1   1.00
    126.1400000              1.0000000        
P   1   1.00
      0.0534800              1.0000000        
D   1   1.00
      3.7750000              1.0000000        
D   1   1.00
      1.3000000              1.0000000        
D   1   1.00
      0.4440000              1.0000000        
D   1   1.00
     14.9270000              1.0000000        
D   1   1.00
     57.5440000              1.0000000        
D   1   1.00
      0.1540000              1.0000000        
F   1   1.00
      2.6660000              1.0000000        
F   1   1.00
      0.8590000              1.0000000        
F   1   1.00
     26.4830000              1.0000000        
F   1   1.00
      0.3240000              1.0000000        
G   1   1.00
      1.8460000              1.0000000        
G   1   1.00
      0.7140000              1.0000000        
****

Mn 0
QMC 3 10

6
1  18.43432244      15.00000000
2  12.74175213   31301.56494509
2  11.67410914   -4576.35463180
2  12.90376156  -26766.73507377
2   4.97171871      -4.09339906
3   8.79264819     276.51483655

6
2  13.56187871    2771.78238977
2   9.44812535   12553.69429672
2  10.76503846    1886.79316638
2  11.65345594   -9260.55332402
2   8.48073002   -8943.95003535
2   6.96707028    1041.73211249

6
2  12.71342918  -23181.32761179
2  18.03174513  111577.22220216
2  16.68279060  -42399.84416473
2  13.18867124   16025.79106608
2  18.42861128  -76264.60573764
2  12.90928974   14270.47832347

6
2   8.13384228    -382.83904013
2  14.28699222    5676.99013005
2  11.14406629   35338.03440844
2  11.37674978  -38881.44458388
2  18.25818233    3550.66026420
2  17.73146307   -5317.47975296
O 0
QMC 1 2

3
1 12.30997 6.00000
3 14.76962 73.85984
2 13.71419 -47.87600

1
2 13.65512 85.86406

