%mem=80GB
%chk=tz.chk
%cpu=0-31

#P ROCCSD(T)=(MaxCyc=150, Full)/Gen SCF=(maxcycle=400) Pseudo=Read Integral(NoXCTest) Pop=Regular MaxDisk=500GB Guess=Read IOp(5/15=2)

Ni

0 3
Ni 0.0 0.0 0.0

Ni     0 
S   1   1.00
 5045991.0000000             1.000000    
S   1   1.00
 755614.2000000              1.000000    
S   1   1.00
 171956.8000000              1.000000    
S   1   1.00
  48704.7900000              1.000000    
S   1   1.00
  15888.4100000              1.000000    
S   1   1.00
   5735.1230000              1.000000    
S   1   1.00
   2236.1370000              1.000000    
S   1   1.00
    926.6468000              1.000000    
S   1   1.00
    403.1743000              1.000000    
S   1   1.00
    182.3476000              1.000000    
S   1   1.00
     84.5488500              1.000000    
S   1   1.00
     38.3963400              1.000000    
S   1   1.00
     18.4585900              1.000000    
S   1   1.00
      8.8635480              1.000000    
S   1   1.00
      3.9162270              1.000000    
S   1   1.00
      1.8388700              1.000000    
S   1   1.00
      0.8043620              1.000000    
S   1   1.00
      0.1697970              1.000000    
S   1   1.00
      0.0793060              1.000000    
S   1   1.00
      0.0346770              1.0000000        
S   1   1.00
      5.7408000              1.0000000        
S   1   1.00
      1.5172000              1.0000000        
S   1   1.00
      0.0151600              1.0000000        
P   1   1.00
  21027.9200000              1.000000       
P   1   1.00
   4977.5600000              1.000000       
P   1   1.00
   1616.7400000              1.000000       
P   1   1.00
    618.6718000              1.000000       
P   1   1.00
    262.5183000              1.000000       
P   1   1.00
    119.6907000              1.000000       
P   1   1.00
     57.4658500              1.000000       
P   1   1.00
     28.5282900              1.000000       
P   1   1.00
     14.5214800              1.000000       
P   1   1.00
      7.4538500              1.000000       
P   1   1.00
      3.7235530              1.000000       
P   1   1.00
      1.8098130              1.000000       
P   1   1.00
      0.8513360              1.000000       
P   1   1.00
      0.3248140              1.000000       
P   1   1.00
      0.1195220              1.000000       
P   1   1.00
      0.0423660              1.0000000        
P   1   1.00
      8.6879000              1.0000000        
P   1   1.00
      2.0080000              1.0000000        
P   1   1.00
      0.0150200              1.0000000        
D   1   1.00
    140.2527000              1.000000       
D   1   1.00
     41.7261000              1.000000       
D   1   1.00
     15.3981000              1.000000       
D   1   1.00
      6.2771000              1.000000       
D   1   1.00
      2.6185000              1.000000       
D   1   1.00
      1.0526000              1.000000       
D   1   1.00
      0.3916000              1.000000       
D   1   1.00
      0.1262000              1.0000000        
D   1   1.00
      5.7882000              1.0000000        
D   1   1.00
      2.7127000              1.0000000        
D   1   1.00
      0.0406700              1.0000000        
F   1   1.00
      8.0748000              1.0000000        
F   1   1.00
      3.1196000              1.0000000        
F   1   1.00
      1.1286000              1.0000000        
F   1   1.00
      0.4083000              1.0000000        
G   1   1.00
      7.3562000              1.0000000        
G   1   1.00
      2.9771000              1.0000000        
G   1   1.00
      1.2048500              1.0000000        
****

Ni 0
GM 2 10

4
1 21.81804460523468  18.0
3 35.21101277458325  392.7248028942242400
2 23.69925747358732  -150.77747349256663
2 9.09797792907140   0.87797909917553

2
2 14.12410039485919  83.50736809611425
2 25.81106861796072  353.95993490451440

2
2 10.08238908347844  44.99270171320545
2 37.60499130871270  268.79379401505179

