%MEM=64GB
%CPU=0-15
%RWF=/scratch/04843/aannabe/gaussian/
%Int=/scratch/04843/aannabe/gaussian/
%D2E=/scratch/04843/aannabe/gaussian/
%NoSave
%CHK=CrH

!Make sure DKHSO is turned off
#P ROCCSD(T)=(maxcyc=150, Full, SaveAmplitudes, ReadAmplitudes)/Gen 5d 7f SCF=(maxcycles=300) Integral(NoXCTest) MaxDisk=500GB Pop=Regular Pseudo=Read Guess=Read !IOp(5/15=2) 

CrH

0 6
Cr 0.0 0.0 0.0
H  0.0 0.0 2.20

Cr     0 
S   1   1.00
 11016640.0000000            1.000       
S   1   1.00
 1649423.0000000             1.000       
S   1   1.00
 375358.9000000              1.000       
S   1   1.00
 106323.6000000              1.000       
S   1   1.00
  34689.7600000              1.000       
S   1   1.00
  12524.8300000              1.000       
S   1   1.00
   4885.7520000              1.000       
S   1   1.00
   2026.9180000              1.000       
S   1   1.00
    884.3645000              1.000       
S   1   1.00
    402.3170000              1.000       
S   1   1.00
    189.5271000              1.000       
S   1   1.00
     91.8609500              1.000       
S   1   1.00
     45.1247600              1.000       
S   1   1.00
     20.6251200              1.000       
S   1   1.00
     10.3197300              1.000       
S   1   1.00
      5.1577230              1.000       
S   1   1.00
      2.3126280              1.000       
S   1   1.00
      1.1030790              1.000       
S   1   1.00
      0.4980420              1.000       
S   1   1.00
      0.1182470              1.000       
S   1   1.00
      0.0573560              1.000       
S   1   1.00
      0.0257600              1.0000000        
S   1   1.00
      4.7991000              1.0000000        
S   1   1.00
      1.4287000              1.0000000        
S   1   1.00
      0.0115700              1.0000000        
P   1   1.00
  31539.8900000              1.000       
P   1   1.00
   7460.2340000              1.000       
P   1   1.00
   2422.6220000              1.000       
P   1   1.00
    927.7547000              1.000       
P   1   1.00
    394.8041000              1.000       
P   1   1.00
    180.8027000              1.000       
P   1   1.00
     87.4239300              1.000       
P   1   1.00
     44.0342700              1.000       
P   1   1.00
     22.7770400              1.000       
P   1   1.00
     12.0154700              1.000       
P   1   1.00
      6.4117510              1.000       
P   1   1.00
      3.3811360              1.000       
P   1   1.00
      1.7470540              1.000       
P   1   1.00
      0.8850040              1.000       
P   1   1.00
      0.4330280              1.000       
P   1   1.00
      0.1739620              1.000       
P   1   1.00
      0.0728230              1.000       
P   1   1.00
      0.0299520              1.0000000        
P   1   1.00
      6.4552000              1.0000000        
P   1   1.00
      1.6531000              1.0000000        
P   1   1.00
      0.0123200              1.0000000        
D   1   1.00
    281.3120000              1.000       
D   1   1.00
     83.1885000              1.000       
D   1   1.00
     31.8396000              1.000       
D   1   1.00
     13.6026000              1.000       
D   1   1.00
      6.1829800              1.000       
D   1   1.00
      2.9227000              1.000       
D   1   1.00
      1.3821600              1.000       
D   1   1.00
      0.6394600              1.000       
D   1   1.00
      0.2848980              1.000       
D   1   1.00
      0.1200450              1.000       
D   1   1.00
      0.0462290              1.0000000        
D   1   1.00
      4.0848000              1.0000000        
D   1   1.00
      2.1405000              1.0000000        
D   1   1.00
      0.0178000              1.0000000        
F   1   1.00
      5.6633000              1.0000000        
F   1   1.00
      2.3365000              1.0000000        
F   1   1.00
      0.9639000              1.0000000        
F   1   1.00
      0.3142000              1.0000000        
F   1   1.00
      0.1024200              1.0000000        
G   1   1.00
      4.6690000              1.0000000        
G   1   1.00
      1.9538000              1.0000000        
G   1   1.00
      0.6848000              1.0000000        
G   1   1.00
      0.2400200              1.0000000        
H   1   1.00
      4.4133000              1.0000000        
H   1   1.00
      1.6472000              1.0000000        
H   1   1.00
      0.6147900              1.0000000        
****
H     0 
S   1   1.00
     82.6400000              1.000        
S   1   1.00
     12.4100000              1.000        
S   1   1.00
      2.8240000              1.000        
S   1   1.00
      0.7977000              1.0000000        
S   1   1.00
      0.2581000              1.0000000        
S   1   1.00
      0.0898900              1.0000000        
S   1   1.00
      0.0236300              1.0000000        
P   1   1.00
      2.2920000              1.0000000        
P   1   1.00
      0.8380000              1.0000000        
P   1   1.00
      0.2920000              1.0000000        
P   1   1.00
      0.0848000              1.0000000        
D   1   1.00
      2.0620000              1.0000000        
D   1   1.00
      0.6620000              1.0000000        
D   1   1.00
      0.1900000              1.0000000        
F   1   1.00
      1.3970000              1.0000000        
F   1   1.00
      0.3600000              1.0000000        
****

Cr 0
ECP10MDF 3 10
F-Komponente
1
2 1.000000 0.000000
S-F
2
2 16.390000 201.578887
2 7.402000 24.205741
P-F
2
2 16.450000 125.022774
2 6.962000 16.479066
D-F
2
2 19.930000 -20.827421
2 6.598000 -0.834368
H 0
QMC 1 0

3
2   21.77696655044365   -10.85192405303825
1   21.24359508259891   1.00000000000000
3   21.24359508259891   21.24359508259891

1
2   1.0   0.0

