%MEM=160GB
%CPU=0-31
%RWF=/scratch/04843/aannabe/gaussian/
%Int=/scratch/04843/aannabe/gaussian/
%D2E=/scratch/04843/aannabe/gaussian/
%NoSave
%CHK=Ti


!Make sure DKHSO is turned off
#P ROCCSD(T)=(maxcyc=150, Full)/Gen 5d 7f SCF=(maxcycles=300, NoVarAcc, VShift=200) MaxDisk=100GB Pop=Regular Pseudo=Read Guess=Read !IOp(5/15=2) 
!#P ROHF/Gen 5d 7f SCF=(maxcycles=300, VShift=300) MaxDisk=100GB Pop=Regular Pseudo=Read !Guess=Read IOp(5/15=2) 

Ti

0 3
Ti 0.0 0.0 0.0

Ti     0 
S   1   1.00
  21976.2000000              1.000    
S   1   1.00
   9539.6000000              1.000    
S   1   1.00
   4334.3700000              1.000    
S   1   1.00
   2042.8900000              1.000    
S   1   1.00
    992.3080000              1.000    
S   1   1.00
    494.4460000              1.000    
S   1   1.00
    251.9070000              1.000    
S   1   1.00
    130.9050000              1.000    
S   1   1.00
     69.2368000              1.000    
S   1   1.00
     37.1847000              1.000    
S   1   1.00
     20.2157000              1.000    
S   1   1.00
     11.0765000              1.000    
S   1   1.00
      6.0786700              1.000    
S   1   1.00
      3.3127700              1.000    
S   1   1.00
      1.7725000              1.000    
S   1   1.00
      0.9173780              1.000    
S   1   1.00
      0.4692830              1.000    
S   1   1.00
      0.2192670              1.000    
S   1   1.00
      0.1058110              1.000    
S   1   1.00
      0.0484430              1.000    
S   1   1.00
      0.0225350              1.0000000        
S   1   1.00
      4.2553000              1.0000000        
S   1   1.00
      1.2538000              1.0000000        
S   1   1.00
      0.0104800              1.0000000        
P   1   1.00
   4537.2200000              1.000       
P   1   1.00
   1726.5400000              1.000       
P   1   1.00
    741.0750000              1.000       
P   1   1.00
    343.8070000              1.000       
P   1   1.00
    167.8840000              1.000       
P   1   1.00
     85.0394000              1.000       
P   1   1.00
     44.3829000              1.000       
P   1   1.00
     23.7928000              1.000       
P   1   1.00
     13.0536000              1.000       
P   1   1.00
      7.2687200              1.000       
P   1   1.00
      4.0380500              1.000       
P   1   1.00
      2.1929400              1.000       
P   1   1.00
      1.1616200              1.000       
P   1   1.00
      0.6032500              1.000       
P   1   1.00
      0.3001740              1.000       
P   1   1.00
      0.1301310              1.000       
P   1   1.00
      0.0572230              1.000       
P   1   1.00
      0.0249100              1.0000000        
P   1   1.00
      5.7813000              1.0000000        
P   1   1.00
      1.6500000              1.0000000        
P   1   1.00
      0.0108400              1.0000000        
D   1   1.00
    261.2460000              1.000       
D   1   1.00
     77.4454000              1.000       
D   1   1.00
     29.6879000              1.000       
D   1   1.00
     12.7642000              1.000       
D   1   1.00
      5.8299200              1.000       
D   1   1.00
      2.7978300              1.000       
D   1   1.00
      1.3638300              1.000       
D   1   1.00
      0.6600370              1.000       
D   1   1.00
      0.3136990              1.000       
D   1   1.00
      0.1449780              1.000       
D   1   1.00
      0.0647720              1.000       
D   1   1.00
      0.0273760              1.0000000        
D   1   1.00
      3.4534000              1.0000000        
D   1   1.00
      1.9445000              1.0000000        
D   1   1.00
      0.0115700              1.0000000        
F   1   1.00
      5.0709000              1.0000000        
F   1   1.00
      2.1837000              1.0000000        
F   1   1.00
      0.9404000              1.0000000        
F   1   1.00
      0.4049000              1.0000000        
F   1   1.00
      0.1277000              1.0000000        
F   1   1.00
      0.0402700              1.0000000        
G   1   1.00
      4.0100000              1.0000000        
G   1   1.00
      1.8192000              1.0000000        
G   1   1.00
      0.8254000              1.0000000        
G   1   1.00
      0.2544000              1.0000000        
G   1   1.00
      0.0784100              1.0000000        
H   1   1.00
      3.6168000              1.0000000        
H   1   1.00
      1.5432000              1.0000000        
H   1   1.00
      0.5044000              1.0000000        
H   1   1.00
      0.1648600              1.0000000        
I   1   1.00
      3.1547000              1.0000000        
I   1   1.00
      0.9864000              1.0000000        
I   1   1.00
      0.3084200              1.0000000        
****

Ti 0
QMC 2 10

4
1 1.82762173790793e+01  12.000
3 1.60224017826574e+01  219.31460854895158
2 1.36339407717172e+01 -9.42912733019428e+01  
2 5.22766015086108e+00  3.34405944970707e-01
  
2
2 1.26352272154932e+01  1.73911533001584e+02  
2 6.20237844233956e+00  1.89713915122681e+01  
  
2
2 1.27824691021075e+01  1.11478970439331e+02
2 5.26978914737322e+00  1.13119473129763e+01

