%MEM=80GB
%CPU=0-31
%RWF=/scratch/04843/aannabe/gaussian/
%Int=/scratch/04843/aannabe/gaussian/
%D2E=/scratch/04843/aannabe/gaussian/
%NoSave
%CHK=Ti


!Make sure DKHSO is turned off
!#P ROCCSD(T)=(maxcyc=150, Full)/Gen 5d 7f SCF=(maxcycles=300, NoVarAcc, VShift=200) MaxDisk=100GB Pop=Regular Pseudo=Read Guess=Read !IOp(5/15=2) 
#P ROHF/Gen 5d 7f SCF=(maxcycles=300, VShift=300) MaxDisk=100GB Pop=Regular Pseudo=Read Guess=Read !IOp(5/15=2) 

Ti

0 3
Ti 0.0 0.0 0.0

Ti     0 
S   1   1.00
752.07419925   1.000
S   1   1.00
250.69139975   1.000
S   1   1.00
92.848666575   1.000
S   1   1.00
37.13946663   1.000
S   1   1.00
11.66061728   1.000
S   1   1.00
8.975115300   1.000
S   1   1.00
7.670119050   1.000
S   1   1.00
3.449237140   1.000
S   1   1.00
1.587054410   1.000
S   1   1.00
0.953874320   1.000
S   1   1.00
0.473005370   1.000
S   1   1.00
0.220304100   1.000
S   1   1.00
0.103495340   1.000
S   1   1.00
0.048220690   1.000
S   1   1.00
0.022663900   1.000
S   1   1.00
0.010652110   1.000
P   1   1.00
898.800422106   1.000
P   1   1.00
299.600140702   1.000
P   1   1.00
110.963015075   1.000
P   1   1.00
44.38520603   1.000
P   1   1.00
23.85822456   1.000
P   1   1.00
12.73507149   1.000
P   1   1.00
6.008428670   1.000
P   1   1.00
3.963014780   1.000
P   1   1.00
2.137514740   1.000
P   1   1.00
1.207125760   1.000
P   1   1.00
0.620001940   1.000
P   1   1.00
0.309000570   1.000
P   1   1.00
0.129182930   1.000
P   1   1.00
0.054007110   1.000
P   1   1.00
0.022578590   1.000
P   1   1.00
0.009439360   1.000
D   1   1.00
73.28664995   1.000
D   1   1.00
29.31465998   1.000
D   1   1.00
13.63067536   1.000
D   1   1.00
8.049079640   1.000
D   1   1.00
3.256824760   1.000
D   1   1.00
1.474054000   1.000
D   1   1.00
0.661412890   1.000
D   1   1.00
0.296736380   1.000
D   1   1.00
0.134560870   1.000
D   1   1.00
0.060956660   1.000
D   1   1.00
0.027845310   1.000
D   1   1.00
0.012719870   1.000
F   1   1.00
3.36906000    1.000
F   1   1.00
1.37167500    1.000
F   1   1.00
0.55846200    1.000
F   1   1.00
0.22737100    1.000
F   1   1.00
0.09257133    1.000
G   1   1.00
3.52699900    1.000
G   1   1.00
1.49880100    1.000
G   1   1.00
0.63691600    1.000
G   1   1.00
0.27065767    1.000
H   1   1.00
3.54800000    1.000
H   1   1.00
1.46124300    1.000
H   1   1.00
0.60181259    1.000
I   1   1.00
2.84248700    1.000
I   1   1.00
1.17067761    1.000
****

Ti 0
QMC 3 10

6
1    8.52499277       12.00000000 
2   15.24334130     2048.39512837 
2    9.82605516     -812.71625987 
2   13.73638629    -6663.62886396 
2   12.65450510     5396.93874773 
3    7.54790686      102.29991323 

6
2    6.07854372    -5355.67455847 
2    6.60870356     4802.76911085 
2    5.40803832     1304.66429039 
2   10.43037595    -1133.61681175 
2   18.40796253     -258.77562194 
2   15.38428800      672.53886697 

6
2    9.60319864    56981.17339652 
2    9.66270511   -57002.97844363 
2   15.06515908     1335.72576887 
2   16.36599976     -813.49634683 
2    7.86420177     -720.45341501 
2   10.25452653      239.69852194 

6
2   10.56650824    -4262.72074057 
2    2.71368379       -1.34753473 
2    9.33780917     1569.82864567 
2   31.60560687       -0.45387550 
2   12.28030141     5034.44351544 
2   13.36770170    -2350.67846378 

