%MEM=80GB
%CPU=0-19
%RWF=/scratch/04843/aannabe/gaussian/
%Int=/scratch/04843/aannabe/gaussian/
%D2E=/scratch/04843/aannabe/gaussian/
%NoSave
%CHK=MnO

!Make sure DKHSO is turned off
#P ROCCSD(T)=(maxcyc=150, Full,   ReadAmplitudes)/Gen 5d 7f SCF=(maxcycles=300, VShift=400) Integral(NoXCTest) MaxDisk=500GB Pop=Full Pseudo=Read Guess=Read !IOp(5/15=2) 

MnO

0 6
Mn 0.0 0.0 0.0
O  0.0 0.0 1.30

Mn     0 
S   1   1.00
  10772.3000000              1.000    
S   1   1.00
   4895.5400000              1.000    
S   1   1.00
   2306.5600000              1.000    
S   1   1.00
   1119.5600000              1.000    
S   1   1.00
    557.3810000              1.000    
S   1   1.00
    283.7780000              1.000    
S   1   1.00
    147.4360000              1.000    
S   1   1.00
     78.0227000              1.000    
S   1   1.00
     41.9679000              1.000    
S   1   1.00
     22.8778000              1.000    
S   1   1.00
     12.5845000              1.000    
S   1   1.00
      6.9417000              1.000    
S   1   1.00
      3.8062900              1.000    
S   1   1.00
      2.0503100              1.000    
S   1   1.00
      1.0683800              1.000    
S   1   1.00
      0.5366060              1.000    
S   1   1.00
      0.1832600              1.000    
S   1   1.00
      0.1052970              1.000    
S   1   1.00
      0.0514640              1.000    
S   1   1.00
      0.0246780              1.0000000        
S   1   1.00
      5.8340000              1.0000000        
S   1   1.00
      1.9879000              1.0000000        
S   1   1.00
      0.0118300              1.0000000        
P   1   1.00
   6114.1000000              1.000       
P   1   1.00
   2316.2600000              1.000       
P   1   1.00
    989.6900000              1.000       
P   1   1.00
    457.9420000              1.000       
P   1   1.00
    223.6420000              1.000       
P   1   1.00
    113.5940000              1.000       
P   1   1.00
     59.5621000              1.000       
P   1   1.00
     32.1072000              1.000       
P   1   1.00
     17.7103000              1.000       
P   1   1.00
      9.9062100              1.000       
P   1   1.00
      5.5224300              1.000       
P   1   1.00
      3.0083200              1.000       
P   1   1.00
      1.5987300              1.000       
P   1   1.00
      0.8308680              1.000       
P   1   1.00
      0.4135380              1.000       
P   1   1.00
      0.1712140              1.000       
P   1   1.00
      0.0721220              1.000       
P   1   1.00
      0.0301100              1.0000000        
P   1   1.00
      8.8318000              1.0000000        
P   1   1.00
      2.6917000              1.0000000        
P   1   1.00
      0.0125700              1.0000000        
D   1   1.00
    449.7850000              1.000       
D   1   1.00
    132.7510000              1.000       
D   1   1.00
     50.9528000              1.000       
D   1   1.00
     22.1594000              1.000       
D   1   1.00
     10.2612000              1.000       
D   1   1.00
      4.9780300              1.000       
D   1   1.00
      2.4573000              1.000       
D   1   1.00
      1.2010100              1.000       
D   1   1.00
      0.5725160              1.000       
D   1   1.00
      0.2625960              1.000       
D   1   1.00
      0.1141400              1.000       
D   1   1.00
      0.0456420              1.0000000        
D   1   1.00
      5.9718000              1.0000000        
D   1   1.00
      3.5428000              1.0000000        
D   1   1.00
      0.0182500              1.0000000        
F   1   1.00
      9.4747000              1.0000000        
F   1   1.00
      4.1404000              1.0000000        
F   1   1.00
      1.8093000              1.0000000        
F   1   1.00
      0.7906000              1.0000000        
F   1   1.00
      0.2614000              1.0000000        
F   1   1.00
      0.0864300              1.0000000        
G   1   1.00
      6.4908000              1.0000000        
G   1   1.00
      3.1225000              1.0000000        
G   1   1.00
      1.5022000              1.0000000        
G   1   1.00
      0.5327000              1.0000000        
G   1   1.00
      0.1889000              1.0000000        
H   1   1.00
      6.0071000              1.0000000        
H   1   1.00
      2.7692000              1.0000000        
H   1   1.00
      1.0636000              1.0000000        
H   1   1.00
      0.4085100              1.0000000        
I   1   1.00
      6.0846000              1.0000000        
I   1   1.00
      2.5736000              1.0000000        
I   1   1.00
      1.0885500              1.0000000        
****
O     0 
S   1   1.00
 164200.0000000              1.000       
S   1   1.00
  24590.0000000              1.000       
S   1   1.00
   5592.0000000              1.000       
S   1   1.00
   1582.0000000              1.000       
S   1   1.00
    516.1000000              1.000       
S   1   1.00
    187.2000000              1.000       
S   1   1.00
     73.9300000              1.000       
S   1   1.00
     31.2200000              1.000       
S   1   1.00
     13.8100000              1.000       
S   1   1.00
      6.2560000              1.000       
S   1   1.00
      2.7760000              1.0000000        
S   1   1.00
      1.1380000              1.0000000        
S   1   1.00
      0.4600000              1.0000000        
S   1   1.00
      0.1829000              1.0000000        
S   1   1.00
     15.6450000              1.0000000        
S   1   1.00
     35.8740000              1.0000000        
S   1   1.00
     82.2590000              1.0000000        
S   1   1.00
    188.6200000              1.0000000        
S   1   1.00
      0.0655000              1.0000000        
P   1   1.00
    195.5000000              1.000        
P   1   1.00
     46.1600000              1.000        
P   1   1.00
     14.5800000              1.000        
P   1   1.00
      5.2960000              1.000        
P   1   1.00
      2.0940000              1.0000000        
P   1   1.00
      0.8471000              1.0000000        
P   1   1.00
      0.3368000              1.0000000        
P   1   1.00
      0.1285000              1.0000000        
P   1   1.00
     14.0490000              1.0000000        
P   1   1.00
     35.4460000              1.0000000        
P   1   1.00
     89.4290000              1.0000000        
P   1   1.00
    225.6300000              1.0000000        
P   1   1.00
      0.0446000              1.0000000        
D   1   1.00
      5.8790000              1.0000000        
D   1   1.00
      2.3070000              1.0000000        
D   1   1.00
      0.9050000              1.0000000        
D   1   1.00
      0.3550000              1.0000000        
D   1   1.00
     16.7030000              1.0000000        
D   1   1.00
     47.3200000              1.0000000        
D   1   1.00
    134.0560000              1.0000000        
D   1   1.00
      0.1310000              1.0000000        
F   1   1.00
      4.0160000              1.0000000        
F   1   1.00
      1.5540000              1.0000000        
F   1   1.00
      0.6010000              1.0000000        
F   1   1.00
     17.3540000              1.0000000        
F   1   1.00
     65.5460000              1.0000000        
F   1   1.00
      0.2370000              1.0000000        
G   1   1.00
      3.3500000              1.0000000        
G   1   1.00
      1.1890000              1.0000000        
G   1   1.00
     48.5780000              1.0000000        
G   1   1.00
      0.5170000              1.0000000        
H   1   1.00
      2.3190000              1.0000000        
H   1   1.00
      1.0240000              1.0000000        
****

Mn 0
QMC 2 10

4
1 21.5539028480995 15.000
3 21.4715810528832 323.3085427214926
2 21.2730185329616 -161.982133945327
2 7.61564656220486 -2.33888749284814

2
2 19.0364189679459 245.4399339729217
2 8.32055740366345 34.00254981153388

2
2 20.3136120140131 162.8082914552050
2 7.80008210258128 24.40767450539371
O 0
QMC 1 2

3
1 12.30997 6.00000
3 14.76962 73.85984
2 13.71419 -47.87600

1
2 13.65512 85.86406

