%MEM=80GB
%CPU=0-15
%RWF=/scratch/04843/aannabe/gaussian/
%Int=/scratch/04843/aannabe/gaussian/
%D2E=/scratch/04843/aannabe/gaussian/
%NoSave
%CHK=CrO

!Make sure DKHSO is turned off
#P ROCCSD(T)=(maxcyc=150, Full, SaveAmplitudes, ReadAmplitudes)/Gen 5d 7f SCF=(maxcycles=300, VShift=200) Integral(NoXCTest) MaxDisk=500GB Pop=Regular Pseudo=Read Guess=Read !IOp(5/15=2) 

CrO

0 5
Cr 0.0 0.0 0.0
O  0.0 0.0 1.20

Cr     0 
S   1   1.00
 11016640.0000000            1.000       
S   1   1.00
 1649423.0000000             1.000       
S   1   1.00
 375358.9000000              1.000       
S   1   1.00
 106323.6000000              1.000       
S   1   1.00
  34689.7600000              1.000       
S   1   1.00
  12524.8300000              1.000       
S   1   1.00
   4885.7520000              1.000       
S   1   1.00
   2026.9180000              1.000       
S   1   1.00
    884.3645000              1.000       
S   1   1.00
    402.3170000              1.000       
S   1   1.00
    189.5271000              1.000       
S   1   1.00
     91.8609500              1.000       
S   1   1.00
     45.1247600              1.000       
S   1   1.00
     20.6251200              1.000       
S   1   1.00
     10.3197300              1.000       
S   1   1.00
      5.1577230              1.000       
S   1   1.00
      2.3126280              1.000       
S   1   1.00
      1.1030790              1.000       
S   1   1.00
      0.4980420              1.000       
S   1   1.00
      0.1182470              1.000       
S   1   1.00
      0.0573560              1.000       
S   1   1.00
      0.0257600              1.0000000        
S   1   1.00
      4.7991000              1.0000000        
S   1   1.00
      1.4287000              1.0000000        
S   1   1.00
      0.0115700              1.0000000        
P   1   1.00
  31539.8900000              1.000       
P   1   1.00
   7460.2340000              1.000       
P   1   1.00
   2422.6220000              1.000       
P   1   1.00
    927.7547000              1.000       
P   1   1.00
    394.8041000              1.000       
P   1   1.00
    180.8027000              1.000       
P   1   1.00
     87.4239300              1.000       
P   1   1.00
     44.0342700              1.000       
P   1   1.00
     22.7770400              1.000       
P   1   1.00
     12.0154700              1.000       
P   1   1.00
      6.4117510              1.000       
P   1   1.00
      3.3811360              1.000       
P   1   1.00
      1.7470540              1.000       
P   1   1.00
      0.8850040              1.000       
P   1   1.00
      0.4330280              1.000       
P   1   1.00
      0.1739620              1.000       
P   1   1.00
      0.0728230              1.000       
P   1   1.00
      0.0299520              1.0000000        
P   1   1.00
      6.4552000              1.0000000        
P   1   1.00
      1.6531000              1.0000000        
P   1   1.00
      0.0123200              1.0000000        
D   1   1.00
    281.3120000              1.000       
D   1   1.00
     83.1885000              1.000       
D   1   1.00
     31.8396000              1.000       
D   1   1.00
     13.6026000              1.000       
D   1   1.00
      6.1829800              1.000       
D   1   1.00
      2.9227000              1.000       
D   1   1.00
      1.3821600              1.000       
D   1   1.00
      0.6394600              1.000       
D   1   1.00
      0.2848980              1.000       
D   1   1.00
      0.1200450              1.000       
D   1   1.00
      0.0462290              1.0000000        
D   1   1.00
      4.0848000              1.0000000        
D   1   1.00
      2.1405000              1.0000000        
D   1   1.00
      0.0178000              1.0000000        
F   1   1.00
      5.6633000              1.0000000        
F   1   1.00
      2.3365000              1.0000000        
F   1   1.00
      0.9639000              1.0000000        
F   1   1.00
      0.3142000              1.0000000        
F   1   1.00
      0.1024200              1.0000000        
G   1   1.00
      4.6690000              1.0000000        
G   1   1.00
      1.9538000              1.0000000        
G   1   1.00
      0.6848000              1.0000000        
G   1   1.00
      0.2400200              1.0000000        
H   1   1.00
      4.4133000              1.0000000        
H   1   1.00
      1.6472000              1.0000000        
H   1   1.00
      0.6147900              1.0000000        
****
O     0 
S   1   1.00
  61420.0000000              1.000       
S   1   1.00
   9199.0000000              1.000       
S   1   1.00
   2091.0000000              1.000       
S   1   1.00
    590.9000000              1.000       
S   1   1.00
    192.3000000              1.000       
S   1   1.00
     69.3200000              1.000       
S   1   1.00
     26.9700000              1.000       
S   1   1.00
     11.1000000              1.000       
S   1   1.00
      4.6820000              1.000       
S   1   1.00
      1.4280000              1.0000000        
S   1   1.00
      0.5547000              1.0000000        
S   1   1.00
      0.2067000              1.0000000        
S   1   1.00
     12.9740000              1.0000000        
S   1   1.00
     34.9000000              1.0000000        
S   1   1.00
     93.8810000              1.0000000        
S   1   1.00
      0.0695900              1.0000000        
P   1   1.00
     63.4200000              1.000        
P   1   1.00
     14.6600000              1.000        
P   1   1.00
      4.4590000              1.000        
P   1   1.00
      1.5310000              1.0000000        
P   1   1.00
      0.5302000              1.0000000        
P   1   1.00
      0.1750000              1.0000000        
P   1   1.00
     14.4750000              1.0000000        
P   1   1.00
     42.7300000              1.0000000        
P   1   1.00
    126.1400000              1.0000000        
P   1   1.00
      0.0534800              1.0000000        
D   1   1.00
      3.7750000              1.0000000        
D   1   1.00
      1.3000000              1.0000000        
D   1   1.00
      0.4440000              1.0000000        
D   1   1.00
     14.9270000              1.0000000        
D   1   1.00
     57.5440000              1.0000000        
D   1   1.00
      0.1540000              1.0000000        
F   1   1.00
      2.6660000              1.0000000        
F   1   1.00
      0.8590000              1.0000000        
F   1   1.00
     26.4830000              1.0000000        
F   1   1.00
      0.3240000              1.0000000        
G   1   1.00
      1.8460000              1.0000000        
G   1   1.00
      0.7140000              1.0000000        
****

Cr 0
QMC 2 10

4
1 1.92822087725407e+01  14.000
3 1.92569493195892e+01  269.9509228155698
2 1.81084961672183e+01 -1.28145162130157e+02  
2 4.86969626125342e+00 -9.64876025432517e-01

2
2 1.65097021636971e+01  2.20079643456381e+02  
2 7.53525223899255e+00  2.78508000749694e+01  

2
2 1.62887935953526e+01  1.43865083798806e+02
2 7.82295432715037e+00  2.05472474950898e+01
O 0
QMC 1 2

3
1 12.30997 6.00000
3 14.76962 73.85984
2 13.71419 -47.87600

1
2 13.65512 85.86406

