%mem=80GB
%cpu=0-31
%chk=qz.chk
%rwf=/scratch/04843/gwang18/cuo/

#P ROCCSD(T)=(MaxCyc=150, Full)/Gen SCF=(maxcycle=400) Pseudo=Read Integral(NoXCTest) Pop=Regular MaxDisk=500GB Guess=Read IOp(5/15=2)

CuO

0 2
Cu 0.0 0.0 0.0
O 0.0 0.0 1.6

Cu     0 
S   1   1.00
 16665490.0000000            1.000000    
S   1   1.00
 2495213.0000000             1.000000    
S   1   1.00
 567850.7000000              1.000000    
S   1   1.00
 160853.1000000              1.000000    
S   1   1.00
  52481.8600000              1.000000    
S   1   1.00
  18948.8500000              1.000000    
S   1   1.00
   7391.6550000              1.000000    
S   1   1.00
   3066.5170000              1.000000    
S   1   1.00
   1337.9940000              1.000000    
S   1   1.00
    608.7830000              1.000000    
S   1   1.00
    286.8980000              1.000000    
S   1   1.00
    139.1530000              1.000000    
S   1   1.00
     68.4945500              1.000000    
S   1   1.00
     31.6010800              1.000000    
S   1   1.00
     15.9915800              1.000000    
S   1   1.00
      8.0565100              1.000000    
S   1   1.00
      3.6903290              1.000000    
S   1   1.00
      1.7629020              1.000000    
S   1   1.00
      0.8012690              1.000000    
S   1   1.00
      0.1842430              1.000000    
S   1   1.00
      0.0817930              1.000000    
S   1   1.00
      0.0353030              1.0000000        
S   1   1.00
      7.2310000              1.0000000        
S   1   1.00
      1.9080000              1.0000000        
S   1   1.00
      0.0152400              1.0000000        
P   1   1.00
  48218.4100000              1.000000       
P   1   1.00
  11420.5500000              1.000000       
P   1   1.00
   3713.5690000              1.000000       
P   1   1.00
   1423.7620000              1.000000       
P   1   1.00
    606.6041000              1.000000       
P   1   1.00
    278.2564000              1.000000       
P   1   1.00
    134.8449000              1.000000       
P   1   1.00
     68.1225400              1.000000       
P   1   1.00
     35.4008800              1.000000       
P   1   1.00
     18.7902900              1.000000       
P   1   1.00
     10.0835600              1.000000       
P   1   1.00
      5.3461200              1.000000       
P   1   1.00
      2.7752280              1.000000       
P   1   1.00
      1.4075640              1.000000       
P   1   1.00
      0.6872130              1.000000       
P   1   1.00
      0.2468220              1.000000       
P   1   1.00
      0.0962200              1.000000       
P   1   1.00
      0.0370370              1.0000000        
P   1   1.00
     11.9218000              1.0000000        
P   1   1.00
      3.2325000              1.0000000        
P   1   1.00
      0.0142600              1.0000000        
D   1   1.00
    527.8860000              1.000000       
D   1   1.00
    158.7330000              1.000000       
D   1   1.00
     61.5556000              1.000000       
D   1   1.00
     26.8834000              1.000000       
D   1   1.00
     12.5175000              1.000000       
D   1   1.00
      6.0697700              1.000000       
D   1   1.00
      2.9583190              1.000000       
D   1   1.00
      1.4141220              1.000000       
D   1   1.00
      0.6533290              1.000000       
D   1   1.00
      0.2866920              1.000000       
D   1   1.00
      0.1150140              1.0000000        
D   1   1.00
      8.4804000              1.0000000        
D   1   1.00
      4.4553000              1.0000000        
D   1   1.00
      0.0461400              1.0000000        
F   1   1.00
     11.9463000              1.0000000        
F   1   1.00
      5.0345000              1.0000000        
F   1   1.00
      2.1217000              1.0000000        
F   1   1.00
      0.7391000              1.0000000        
F   1   1.00
      0.2574700              1.0000000        
G   1   1.00
      9.5934000              1.0000000        
G   1   1.00
      4.3083000              1.0000000        
G   1   1.00
      1.7760000              1.0000000        
G   1   1.00
      0.7321200              1.0000000        
H   1   1.00
      8.5704000              1.0000000        
H   1   1.00
      3.7909000              1.0000000        
H   1   1.00
      1.6768100              1.0000000        
****
O     0 
S   1   1.00
  61420.0000000              1.000000       
S   1   1.00
   9199.0000000              1.000000       
S   1   1.00
   2091.0000000              1.000000       
S   1   1.00
    590.9000000              1.000000       
S   1   1.00
    192.3000000              1.000000       
S   1   1.00
     69.3200000              1.000000       
S   1   1.00
     26.9700000              1.000000       
S   1   1.00
     11.1000000              1.000000       
S   1   1.00
      4.6820000              1.000000       
S   1   1.00
      1.4280000              1.0000000        
S   1   1.00
      0.5547000              1.0000000        
S   1   1.00
      0.2067000              1.0000000        
S   1   1.00
     12.9740000              1.0000000        
S   1   1.00
     34.9000000              1.0000000        
S   1   1.00
     93.8810000              1.0000000        
S   1   1.00
      0.0695900              1.0000000        
P   1   1.00
     63.4200000              1.000000        
P   1   1.00
     14.6600000              1.000000        
P   1   1.00
      4.4590000              1.000000        
P   1   1.00
      1.5310000              1.0000000        
P   1   1.00
      0.5302000              1.0000000        
P   1   1.00
      0.1750000              1.0000000        
P   1   1.00
     14.4750000              1.0000000        
P   1   1.00
     42.7300000              1.0000000        
P   1   1.00
    126.1400000              1.0000000        
P   1   1.00
      0.0534800              1.0000000        
D   1   1.00
      3.7750000              1.0000000        
D   1   1.00
      1.3000000              1.0000000        
D   1   1.00
      0.4440000              1.0000000        
D   1   1.00
     14.9270000              1.0000000        
D   1   1.00
     57.5440000              1.0000000        
D   1   1.00
      0.1540000              1.0000000        
F   1   1.00
      2.6660000              1.0000000        
F   1   1.00
      0.8590000              1.0000000        
F   1   1.00
     26.4830000              1.0000000        
F   1   1.00
      0.3240000              1.0000000        
G   1   1.00
      1.8460000              1.0000000        
G   1   1.00
      0.7140000              1.0000000        
****

Cu 0
ECEPP 3 10          

6
1 19.87662576       19.00000000
2 18.71397328    13322.83154110
2  8.24597653     -143.81933419
2 17.99726398    -6835.89401414
2 19.50653533    -6413.73731394
3  9.35936389      377.65588950

6
2 12.04327682   217421.85846016
2 11.98352277  -215987.47192743
2  9.67744501     1647.53099822
2 17.58068730    -5124.79596488
2 17.50925880     -963.56912390
2 19.80724162     3071.81011765

6
2 15.48559732   189560.54470794
2 15.42430413  -181115.65838446
2 17.81980355    -1937.67548293
2 17.69074392    -2335.92086442
2 17.98867265    -8634.52846732
2 19.82460345     4504.58524733

6
2 10.91448054    -5224.34215851
2 14.69969344    -3653.65459704
2 11.52370333     8159.25189768
2 19.81153965    -2763.94279097
2 18.01979820     6020.80732635
2 14.46480052    -2560.14492979
O 0
QMC 2 2

6
1 10.27717748       6.00000000
2 15.99566749    1232.50197768
2 10.46901775    -696.47008301
2 14.63848010   -2654.22657081
2 12.57591181    2101.67732548
3  7.77739102      61.66306486

6
2 12.39426073 -656683.37638839
2 12.38126171  657858.57667068
2  8.57671033     511.50098405
2  9.89256508   -2579.54665641
2 28.05641604     -57.68129584
2 17.24753607     970.30940152

6
2 14.78918914 -363027.24258186
2 14.82014018  361852.52314043
2 22.89622221   -1300.20069256
2  8.51331893    -181.96869573
2 11.48609758    2194.87589959
2 27.22017524     451.19906206

