%mem=64GB
%cpu=0-16
%chk=O
%rwf=/scratch/04843/aannabe/gaussian/

!Make sure DKHSO is turned off
#P ROCCSD(T)=(maxcyc=150, Full)/Gen 5d 7f SCF=(maxcycles=300) MaxDisk=500GB Pop=Regular Pseudo=Read Guess=Read !IOp(5/15=2) 

O

0 3
O 0.0 0.0 0.0

O     0 
S   1   1.00
 164200.0000000              1.000       
S   1   1.00
  24590.0000000              1.000       
S   1   1.00
   5592.0000000              1.000       
S   1   1.00
   1582.0000000              1.000       
S   1   1.00
    516.1000000              1.000       
S   1   1.00
    187.2000000              1.000       
S   1   1.00
     73.9300000              1.000       
S   1   1.00
     31.2200000              1.000       
S   1   1.00
     13.8100000              1.000       
S   1   1.00
      6.2560000              1.000       
S   1   1.00
      2.7760000              1.0000000        
S   1   1.00
      1.1380000              1.0000000        
S   1   1.00
      0.4600000              1.0000000        
S   1   1.00
      0.1829000              1.0000000        
S   1   1.00
     15.6450000              1.0000000        
S   1   1.00
     35.8740000              1.0000000        
S   1   1.00
     82.2590000              1.0000000        
S   1   1.00
    188.6200000              1.0000000        
S   1   1.00
      0.0655000              1.0000000        
P   1   1.00
    195.5000000              1.000        
P   1   1.00
     46.1600000              1.000        
P   1   1.00
     14.5800000              1.000        
P   1   1.00
      5.2960000              1.000        
P   1   1.00
      2.0940000              1.0000000        
P   1   1.00
      0.8471000              1.0000000        
P   1   1.00
      0.3368000              1.0000000        
P   1   1.00
      0.1285000              1.0000000        
P   1   1.00
     14.0490000              1.0000000        
P   1   1.00
     35.4460000              1.0000000        
P   1   1.00
     89.4290000              1.0000000        
P   1   1.00
    225.6300000              1.0000000        
P   1   1.00
      0.0446000              1.0000000        
D   1   1.00
      5.8790000              1.0000000        
D   1   1.00
      2.3070000              1.0000000        
D   1   1.00
      0.9050000              1.0000000        
D   1   1.00
      0.3550000              1.0000000        
D   1   1.00
     16.7030000              1.0000000        
D   1   1.00
     47.3200000              1.0000000        
D   1   1.00
    134.0560000              1.0000000        
D   1   1.00
      0.1310000              1.0000000        
F   1   1.00
      4.0160000              1.0000000        
F   1   1.00
      1.5540000              1.0000000        
F   1   1.00
      0.6010000              1.0000000        
F   1   1.00
     17.3540000              1.0000000        
F   1   1.00
     65.5460000              1.0000000        
F   1   1.00
      0.2370000              1.0000000        
G   1   1.00
      3.3500000              1.0000000        
G   1   1.00
      1.1890000              1.0000000        
G   1   1.00
     48.5780000              1.0000000        
G   1   1.00
      0.5170000              1.0000000        
H   1   1.00
      2.3190000              1.0000000        
H   1   1.00
      1.0240000              1.0000000        
****

O 0
QMC 2 2

6
1   10.27717748        6.00000000 
2   15.99566749     1232.50197768 
2   10.46901775     -696.47008301 
2   14.63848010    -2654.22657081 
2   12.57591181     2101.67732548 
3    7.77739102       61.66306486 

6
2   12.39426073  -656683.37638839 
2   12.38126171   657858.57667068 
2    8.57671033      511.50098405 
2    9.89256508    -2579.54665641 
2   28.05641604      -57.68129584 
2   17.24753607      970.30940152 

6
2   14.78918914  -363027.24258186 
2   14.82014018   361852.52314043 
2   22.89622221    -1300.20069256 
2    8.51331893     -181.96869573 
2   11.48609758     2194.87589959 
2   27.22017524      451.19906206 

