%mem=80GB
%chk=5z.chk
%cpu=0-31

#P ROCCSD(T)=(MaxCyc=150, FrzINGC)/Gen SCF=(maxcycle=400) Integral(DKHSO, NoXCTest) Pop=Regular MaxDisk=500GB Guess=Read IOp(5/15=2)

Co

0 4
Co 0.0 0.0 0.0

Co     0 
S   1   1.00
      1.61030E+08            1.000000    
S   1   1.00
      2.87558E+07            1.000000    
S   1   1.00
      6.42324E+06            1.000000    
S   1   1.00
      1.72120E+06            1.000000    
S   1   1.00
 533994.0000000              1.000000    
S   1   1.00
 186194.0000000              1.000000    
S   1   1.00
  71201.7000000              1.000000    
S   1   1.00
  29276.2000000              1.000000    
S   1   1.00
  12742.3000000              1.000000    
S   1   1.00
   5800.5100000              1.000000    
S   1   1.00
   2736.9600000              1.000000    
S   1   1.00
   1329.9900000              1.000000    
S   1   1.00
    662.6110000              1.000000    
S   1   1.00
    337.4150000              1.000000    
S   1   1.00
    175.2340000              1.000000    
S   1   1.00
     92.6434000              1.000000    
S   1   1.00
     49.7576000              1.000000    
S   1   1.00
     27.0728000              1.000000    
S   1   1.00
     14.8610000              1.000000    
S   1   1.00
      8.1812100              1.000000    
S   1   1.00
      4.4794100              1.000000    
S   1   1.00
      2.4119100              1.000000    
S   1   1.00
      1.2584400              1.000000    
S   1   1.00
      0.6312340              1.000000    
S   1   1.00
      0.2152970              1.000000    
S   1   1.00
      0.1185100              1.000000    
S   1   1.00
      0.0572090              1.000000    
S   1   1.00
      0.0271660              1.0000000        
S   1   1.00
      7.3346000              1.0000000        
S   1   1.00
      2.6036000              1.0000000        
S   1   1.00
      0.0129000              1.0000000        
P   1   1.00
  97512.6000000              1.000000       
P   1   1.00
  23815.1000000              1.000000       
P   1   1.00
   7540.4300000              1.000000       
P   1   1.00
   2854.0800000              1.000000       
P   1   1.00
   1217.6900000              1.000000       
P   1   1.00
    562.5150000              1.000000       
P   1   1.00
    274.2740000              1.000000       
P   1   1.00
    139.1140000              1.000000       
P   1   1.00
     72.8598000              1.000000       
P   1   1.00
     39.2448000              1.000000       
P   1   1.00
     21.6430000              1.000000       
P   1   1.00
     12.1149000              1.000000       
P   1   1.00
      6.7691200              1.000000       
P   1   1.00
      3.7052800              1.000000       
P   1   1.00
      1.9790100              1.000000       
P   1   1.00
      1.0312700              1.000000       
P   1   1.00
      0.5136090              1.000000       
P   1   1.00
      0.2044820              1.000000       
P   1   1.00
      0.0838700              1.000000       
P   1   1.00
      0.0341020              1.0000000        
P   1   1.00
     11.2264000              1.0000000        
P   1   1.00
      3.6309000              1.0000000        
P   1   1.00
      0.0138700              1.0000000        
D   1   1.00
    545.1100000              1.000000       
D   1   1.00
    160.5580000              1.000000       
D   1   1.00
     61.6223000              1.000000       
D   1   1.00
     26.8224000              1.000000       
D   1   1.00
     12.4583000              1.000000       
D   1   1.00
      6.0606600              1.000000       
D   1   1.00
      2.9951700              1.000000       
D   1   1.00
      1.4647770              1.000000       
D   1   1.00
      0.6982420              1.000000       
D   1   1.00
      0.3200570              1.000000       
D   1   1.00
      0.1388040              1.000000       
D   1   1.00
      0.0550170              1.0000000        
D   1   1.00
      8.0293000              1.0000000        
D   1   1.00
      4.9005000              1.0000000        
D   1   1.00
      0.0218100              1.0000000        
F   1   1.00
     12.5542000              1.0000000        
F   1   1.00
      5.5551000              1.0000000        
F   1   1.00
      2.4581000              1.0000000        
F   1   1.00
      1.0877000              1.0000000        
F   1   1.00
      0.3686000              1.0000000        
F   1   1.00
      0.1249100              1.0000000        
G   1   1.00
      8.7355000              1.0000000        
G   1   1.00
      4.2811000              1.0000000        
G   1   1.00
      2.0981000              1.0000000        
G   1   1.00
      0.7828000              1.0000000        
G   1   1.00
      0.2920600              1.0000000        
H   1   1.00
      7.8788000              1.0000000        
H   1   1.00
      3.7437000              1.0000000        
H   1   1.00
      1.5288000              1.0000000        
H   1   1.00
      0.6243100              1.0000000        
I   1   1.00
      8.0114000              1.0000000        
I   1   1.00
      3.6607000              1.0000000        
I   1   1.00
      1.6727100              1.0000000        
****

