%mem=80GB
%cpu=0-31
%chk=tz.chk
%rwf=/scratch/04843/gwang18/nio/

#P ROCCSD(T)=(MaxCyc=150, Full)/Gen SCF=(maxcycle=400) Pseudo=Read Integral(NoXCTest) Pop=Regular MaxDisk=500GB Guess=Read IOp(5/15=2)

NiO

0 3
Ni 0.0 0.0 0.0
O 0.0 0.0 1.3

Ni     0 
S   1   1.00
 5045991.0000000             1.000000    
S   1   1.00
 755614.2000000              1.000000    
S   1   1.00
 171956.8000000              1.000000    
S   1   1.00
  48704.7900000              1.000000    
S   1   1.00
  15888.4100000              1.000000    
S   1   1.00
   5735.1230000              1.000000    
S   1   1.00
   2236.1370000              1.000000    
S   1   1.00
    926.6468000              1.000000    
S   1   1.00
    403.1743000              1.000000    
S   1   1.00
    182.3476000              1.000000    
S   1   1.00
     84.5488500              1.000000    
S   1   1.00
     38.3963400              1.000000    
S   1   1.00
     18.4585900              1.000000    
S   1   1.00
      8.8635480              1.000000    
S   1   1.00
      3.9162270              1.000000    
S   1   1.00
      1.8388700              1.000000    
S   1   1.00
      0.8043620              1.000000    
S   1   1.00
      0.1697970              1.000000    
S   1   1.00
      0.0793060              1.000000    
S   1   1.00
      0.0346770              1.0000000        
S   1   1.00
      5.7408000              1.0000000        
S   1   1.00
      1.5172000              1.0000000        
S   1   1.00
      0.0151600              1.0000000        
P   1   1.00
  21027.9200000              1.000000       
P   1   1.00
   4977.5600000              1.000000       
P   1   1.00
   1616.7400000              1.000000       
P   1   1.00
    618.6718000              1.000000       
P   1   1.00
    262.5183000              1.000000       
P   1   1.00
    119.6907000              1.000000       
P   1   1.00
     57.4658500              1.000000       
P   1   1.00
     28.5282900              1.000000       
P   1   1.00
     14.5214800              1.000000       
P   1   1.00
      7.4538500              1.000000       
P   1   1.00
      3.7235530              1.000000       
P   1   1.00
      1.8098130              1.000000       
P   1   1.00
      0.8513360              1.000000       
P   1   1.00
      0.3248140              1.000000       
P   1   1.00
      0.1195220              1.000000       
P   1   1.00
      0.0423660              1.0000000        
P   1   1.00
      8.6879000              1.0000000        
P   1   1.00
      2.0080000              1.0000000        
P   1   1.00
      0.0150200              1.0000000        
D   1   1.00
    140.2527000              1.000000       
D   1   1.00
     41.7261000              1.000000       
D   1   1.00
     15.3981000              1.000000       
D   1   1.00
      6.2771000              1.000000       
D   1   1.00
      2.6185000              1.000000       
D   1   1.00
      1.0526000              1.000000       
D   1   1.00
      0.3916000              1.000000       
D   1   1.00
      0.1262000              1.0000000        
D   1   1.00
      5.7882000              1.0000000        
D   1   1.00
      2.7127000              1.0000000        
D   1   1.00
      0.0406700              1.0000000        
F   1   1.00
      8.0748000              1.0000000        
F   1   1.00
      3.1196000              1.0000000        
F   1   1.00
      1.1286000              1.0000000        
F   1   1.00
      0.4083000              1.0000000        
G   1   1.00
      7.3562000              1.0000000        
G   1   1.00
      2.9771000              1.0000000        
G   1   1.00
      1.2048500              1.0000000        
****
O     0 
S   1   1.00
  15330.0000000              1.000000       
S   1   1.00
   2299.0000000              1.000000       
S   1   1.00
    522.4000000              1.000000       
S   1   1.00
    147.3000000              1.000000       
S   1   1.00
     47.5500000              1.000000       
S   1   1.00
     16.7600000              1.000000       
S   1   1.00
      6.2070000              1.000000       
S   1   1.00
      0.6882000              1.000000       
S   1   1.00
      1.7520000              1.0000000        
S   1   1.00
      0.2384000              1.0000000        
S   1   1.00
      7.8450000              1.0000000        
S   1   1.00
     21.0320000              1.0000000        
S   1   1.00
      0.0737600              1.0000000        
P   1   1.00
     34.4600000              1.000000        
P   1   1.00
      7.7490000              1.000000        
P   1   1.00
      2.2800000              1.000000        
P   1   1.00
      0.7156000              1.0000000        
P   1   1.00
      0.2140000              1.0000000        
P   1   1.00
     15.1590000              1.0000000        
P   1   1.00
     57.4370000              1.0000000        
P   1   1.00
      0.0597400              1.0000000        
D   1   1.00
      2.3140000              1.0000000        
D   1   1.00
      0.6450000              1.0000000        
D   1   1.00
     15.8580000              1.0000000        
D   1   1.00
      0.2140000              1.0000000        
F   1   1.00
      1.4280000              1.0000000        
F   1   1.00
      0.5000000              1.0000000        
****

Ni 0
ECP10MDF 3 10
F-Komponente
1
2 1.000000 0.000000
S-F
2
2 26.740000 317.682272
2 11.860000 58.255391
P-F
2
2 28.800000 252.474366
2 11.790000 36.081503
D-F
2
2 33.700000 -18.522955
2 11.660000 -4.557668
O 0
ECP2SDF 3 2
F-Komponente
1
2 1.000000 0.000000
S-F
1
2 12.968600 73.608600
P-F
1
2 15.243000 -3.917200
D-F
1
2 9.617200 -0.655900


