%mem=80GB
%cpu=0-31
%chk=qz.chk
%rwf=/scratch/04843/gwang18/coo/

#P ROCCSD(T)=(MaxCyc=150, Full)/Gen SCF=(maxcycle=400) Pseudo=Read Integral(NoXCTest) Pop=Regular MaxDisk=500GB Guess=Read IOp(5/15=2)

CoO

0 4
Co 0.0 0.0 0.0
O 0.0 0.0 1.2

Co     0 
S   1   1.00
      0.1437022E+08          1.000000       
S   1   1.00
 2151540.0000000             1.000000       
S   1   1.00
 489625.7000000              1.000000       
S   1   1.00
 138690.3000000              1.000000       
S   1   1.00
  45249.8900000              1.000000       
S   1   1.00
  16337.6200000              1.000000       
S   1   1.00
   6373.0730000              1.000000       
S   1   1.00
   2643.9580000              1.000000       
S   1   1.00
   1153.6140000              1.000000       
S   1   1.00
    524.8606000              1.000000       
S   1   1.00
    247.3069000              1.000000       
S   1   1.00
    119.9063000              1.000000       
S   1   1.00
     58.9642900              1.000000       
S   1   1.00
     27.1361600              1.000000       
S   1   1.00
     13.6891200              1.000000       
S   1   1.00
      6.8827710              1.000000       
S   1   1.00
      3.1446470              1.000000       
S   1   1.00
      1.5062660              1.000000       
S   1   1.00
      0.6872680              1.000000       
S   1   1.00
      0.1609720              1.000000       
S   1   1.00
      0.0730170              1.000000       
S   1   1.00
      0.0320710              1.0000000        
S   1   1.00
      6.2451000              1.0000000        
S   1   1.00
      1.7752000              1.0000000        
S   1   1.00
      0.0140900              1.0000000        
P   1   1.00
  41961.4000000              1.000000       
P   1   1.00
   9928.3060000              1.000000       
P   1   1.00
   3224.9710000              1.000000       
P   1   1.00
   1235.2930000              1.000000       
P   1   1.00
    525.8469000              1.000000       
P   1   1.00
    240.9762000              1.000000       
P   1   1.00
    116.6418000              1.000000       
P   1   1.00
     58.8483400              1.000000       
P   1   1.00
     30.5291000              1.000000       
P   1   1.00
     16.1694300              1.000000       
P   1   1.00
      8.6642360              1.000000       
P   1   1.00
      4.5919430              1.000000       
P   1   1.00
      2.3810480              1.000000       
P   1   1.00
      1.2062460              1.000000       
P   1   1.00
      0.5888220              1.000000       
P   1   1.00
      0.2248930              1.000000       
P   1   1.00
      0.0904480              1.000000       
P   1   1.00
      0.0358200              1.0000000        
P   1   1.00
      9.4150000              1.0000000        
P   1   1.00
      2.5758000              1.0000000        
P   1   1.00
      0.0141900              1.0000000        
D   1   1.00
    371.5660000              1.000000       
D   1   1.00
    110.1150000              1.000000       
D   1   1.00
     42.4255000              1.000000       
D   1   1.00
     18.3369000              1.000000       
D   1   1.00
      8.4573000              1.000000       
D   1   1.00
      4.0417900              1.000000       
D   1   1.00
      1.9260300              1.000000       
D   1   1.00
      0.8942810              1.000000       
D   1   1.00
      0.3979880              1.000000       
D   1   1.00
      0.1665000              1.000000       
D   1   1.00
      0.0630250              1.0000000        
D   1   1.00
      6.2748000              1.0000000        
D   1   1.00
      3.3097000              1.0000000        
D   1   1.00
      0.0238600              1.0000000        
F   1   1.00
      8.9724000              1.0000000        
F   1   1.00
      3.7773000              1.0000000        
F   1   1.00
      1.5902000              1.0000000        
F   1   1.00
      0.5363000              1.0000000        
F   1   1.00
      0.1808700              1.0000000        
G   1   1.00
      7.3377000              1.0000000        
G   1   1.00
      3.2254000              1.0000000        
G   1   1.00
      1.2510000              1.0000000        
G   1   1.00
      0.4852100              1.0000000        
H   1   1.00
      6.7172000              1.0000000        
H   1   1.00
      2.7485000              1.0000000        
H   1   1.00
      1.1246100              1.0000000        
****
O     0 
S   1   1.00
  61420.0000000              1.000000       
S   1   1.00
   9199.0000000              1.000000       
S   1   1.00
   2091.0000000              1.000000       
S   1   1.00
    590.9000000              1.000000       
S   1   1.00
    192.3000000              1.000000       
S   1   1.00
     69.3200000              1.000000       
S   1   1.00
     26.9700000              1.000000       
S   1   1.00
     11.1000000              1.000000       
S   1   1.00
      4.6820000              1.000000       
S   1   1.00
      1.4280000              1.0000000        
S   1   1.00
      0.5547000              1.0000000        
S   1   1.00
      0.2067000              1.0000000        
S   1   1.00
     12.9740000              1.0000000        
S   1   1.00
     34.9000000              1.0000000        
S   1   1.00
     93.8810000              1.0000000        
S   1   1.00
      0.0695900              1.0000000        
P   1   1.00
     63.4200000              1.000000        
P   1   1.00
     14.6600000              1.000000        
P   1   1.00
      4.4590000              1.000000        
P   1   1.00
      1.5310000              1.0000000        
P   1   1.00
      0.5302000              1.0000000        
P   1   1.00
      0.1750000              1.0000000        
P   1   1.00
     14.4750000              1.0000000        
P   1   1.00
     42.7300000              1.0000000        
P   1   1.00
    126.1400000              1.0000000        
P   1   1.00
      0.0534800              1.0000000        
D   1   1.00
      3.7750000              1.0000000        
D   1   1.00
      1.3000000              1.0000000        
D   1   1.00
      0.4440000              1.0000000        
D   1   1.00
     14.9270000              1.0000000        
D   1   1.00
     57.5440000              1.0000000        
D   1   1.00
      0.1540000              1.0000000        
F   1   1.00
      2.6660000              1.0000000        
F   1   1.00
      0.8590000              1.0000000        
F   1   1.00
     26.4830000              1.0000000        
F   1   1.00
      0.3240000              1.0000000        
G   1   1.00
      1.8460000              1.0000000        
G   1   1.00
      0.7140000              1.0000000        
****

Co 0
GM 2 10

4
1 27.41132561274041  17.0
3 26.76075806161875  465.9925354165869700
2 20.48032022247462  -134.54809603014158
2 7.21322693163409   0.88774464607555

2
2 10.65613958088872  54.09267691380918
2 23.84293737028188  306.74716360116275

2
2 10.19977264347746  39.08918711290565
2 26.42655542083392  208.27588660556384
O 0
QMC 1 2

3
1 12.3099743608243  6.00000000000000
3 14.7696229283522  73.8598461649458
2 13.7141954216007 -47.8760050413118

1
2 13.6551200129796  85.8640652580159

