%mem=80GB
%cpu=0-31
%chk=5z.chk
%rwf=/scratch/04843/gwang18/znh/

#P ROCCSD(T)=(MaxCyc=150, Full)/Gen SCF=(maxcycle=400, vshift=200) Pseudo=Read Integral(NoXCTest) Pop=Regular MaxDisk=500GB Guess=Read IOp(5/15=2)

ZnH

0 2
Zn 0.0 0.0 0.0
H 0.0 0.0 1.3

Zn     0 
S   1   1.00
      1.87413E+08            1.000000    
S   1   1.00
      3.35127E+07            1.000000    
S   1   1.00
      7.50475E+06            1.000000    
S   1   1.00
      2.01787E+06            1.000000    
S   1   1.00
 628578.0000000              1.000000    
S   1   1.00
 220163.0000000              1.000000    
S   1   1.00
  84595.2000000              1.000000    
S   1   1.00
  34955.5000000              1.000000    
S   1   1.00
  15290.3000000              1.000000    
S   1   1.00
   6994.9300000              1.000000    
S   1   1.00
   3316.5900000              1.000000    
S   1   1.00
   1619.2400000              1.000000    
S   1   1.00
    810.3430000              1.000000    
S   1   1.00
    414.3930000              1.000000    
S   1   1.00
    216.0580000              1.000000    
S   1   1.00
    114.6350000              1.000000    
S   1   1.00
     61.7623000              1.000000    
S   1   1.00
     33.6924000              1.000000    
S   1   1.00
     18.5315000              1.000000    
S   1   1.00
     10.2144000              1.000000    
S   1   1.00
      5.5942800              1.000000    
S   1   1.00
      3.0096800              1.000000    
S   1   1.00
      1.5668400              1.000000    
S   1   1.00
      0.7814370              1.000000    
S   1   1.00
      0.2581180              1.000000    
S   1   1.00
      0.1385560              1.000000    
S   1   1.00
      0.0661710              1.000000    
S   1   1.00
      0.0309860              1.0000000        
S   1   1.00
     10.4508000              1.0000000        
S   1   1.00
      3.9198000              1.0000000        
S   1   1.00
      0.0145100              1.0000000        
P   1   1.00
 110349.0000000              1.000000       
P   1   1.00
  26971.3000000              1.000000       
P   1   1.00
   8560.0700000              1.000000       
P   1   1.00
   3248.8000000              1.000000       
P   1   1.00
   1389.4100000              1.000000       
P   1   1.00
    643.0430000              1.000000       
P   1   1.00
    314.0050000              1.000000       
P   1   1.00
    159.4890000              1.000000       
P   1   1.00
     83.6662000              1.000000       
P   1   1.00
     45.1574000              1.000000       
P   1   1.00
     24.9630000              1.000000       
P   1   1.00
     14.0043000              1.000000       
P   1   1.00
      7.8326700              1.000000       
P   1   1.00
      4.2841000              1.000000       
P   1   1.00
      2.2890100              1.000000       
P   1   1.00
      1.1943600              1.000000       
P   1   1.00
      0.5942580              1.000000       
P   1   1.00
      0.2269140              1.000000       
P   1   1.00
      0.0901790              1.000000       
P   1   1.00
      0.0357180              1.0000000        
P   1   1.00
     14.8971000              1.0000000        
P   1   1.00
      4.7100000              1.0000000        
P   1   1.00
      0.0141500              1.0000000        
D   1   1.00
    854.1223000              1.000000       
D   1   1.00
    257.9496000              1.000000       
D   1   1.00
    100.2319000              1.000000       
D   1   1.00
     44.1762100              1.000000       
D   1   1.00
     20.7847600              1.000000       
D   1   1.00
     10.2275600              1.000000       
D   1   1.00
      5.1512410              1.000000       
D   1   1.00
      2.5908470              1.000000       
D   1   1.00
      1.2858010              1.000000       
D   1   1.00
      0.6253440              1.000000       
D   1   1.00
      0.2939430              1.000000       
D   1   1.00
      0.1289970              1.0000000        
D   1   1.00
     11.5936000              1.0000000        
D   1   1.00
      7.2491000              1.0000000        
D   1   1.00
      0.0566100              1.0000000        
F   1   1.00
     17.8628000              1.0000000        
F   1   1.00
      8.0392000              1.0000000        
F   1   1.00
      3.6180000              1.0000000        
F   1   1.00
      1.6283000              1.0000000        
F   1   1.00
      0.5721000              1.0000000        
F   1   1.00
      0.2010100              1.0000000        
G   1   1.00
     12.5406000              1.0000000        
G   1   1.00
      6.2306000              1.0000000        
G   1   1.00
      3.0956000              1.0000000        
G   1   1.00
      1.1951000              1.0000000        
G   1   1.00
      0.4613900              1.0000000        
H   1   1.00
     11.2261000              1.0000000        
H   1   1.00
      5.5189000              1.0000000        
H   1   1.00
      2.4250000              1.0000000        
H   1   1.00
      1.0655400              1.0000000        
I   1   1.00
     11.0188000              1.0000000        
I   1   1.00
      5.5487000              1.0000000        
I   1   1.00
      2.7941400              1.0000000        
****
H     0 
S   1   1.00
    402.0000000              1.000000        
S   1   1.00
     60.2400000              1.000000        
S   1   1.00
     13.7300000              1.000000        
S   1   1.00
      3.9050000              1.000000        
S   1   1.00
      1.2830000              1.0000000        
S   1   1.00
      0.4655000              1.0000000        
S   1   1.00
      0.1811000              1.0000000        
S   1   1.00
      0.0727900              1.0000000        
S   1   1.00
      0.0207000              1.0000000        
P   1   1.00
      4.5160000              1.0000000        
P   1   1.00
      1.7120000              1.0000000        
P   1   1.00
      0.6490000              1.0000000        
P   1   1.00
      0.2460000              1.0000000        
P   1   1.00
      0.0744000              1.0000000        
D   1   1.00
      2.9500000              1.0000000        
D   1   1.00
      1.2060000              1.0000000        
D   1   1.00
      0.4930000              1.0000000        
D   1   1.00
      0.1560000              1.0000000        
F   1   1.00
      2.5060000              1.0000000        
F   1   1.00
      0.8750000              1.0000000        
F   1   1.00
      0.2740000              1.0000000        
G   1   1.00
      2.3580000              1.0000000        
G   1   1.00
      0.5430000              1.0000000        
****

Zn 0
GM 2 10

4
1 35.87771523255935  20.0
3 34.10784236962095  717.5543046511870000
2 28.71745204229478  -203.49912625487161
2 8.39550882138344  -0.04450116575923

2
2 14.49782889165584  95.23904948960599
2 35.15976095427823  430.48072034938946

2
2 14.71198185633088  73.77695397849085
2 41.62867068311363  312.12270271509306
H 0
QMC 1 0

3
2   21.77696655044365      -10.85192405303825
1   21.24359508259891        1.00000000000000
3   21.24359508259891       21.24359508259891

1
2    1.               0.

