%mem=64GB
%cpu=0-31
%chk=Sc
!%rwf=wfn

!Make sure DKHSO is turned off, and grid is the same as AE case
#P ROCCSD(T)=(maxcyc=150, Full)/Gen 5d 7f SCF=(maxcycles=300) MaxDisk=500GB Pop=Regular Pseudo=Read Guess=Read IOp(5/15=2) IOP(3/32=2)
!#P ROHF/Gen 5d 7f SCF=(maxcycles=300, NoVarAcc, VShift=300) MaxDisk=500GB Pop=Regular Pseudo=Read !Guess=Read !IOp(5/15=2) 

Sc

0 2
Sc 0.0 0.0 0.0

Sc     0 
S   1   1.00
 8417909.0000000             1.000       
S   1   1.00
 1260312.0000000             1.000       
S   1   1.00
 286798.4000000              1.000       
S   1   1.00
  81234.6900000              1.000       
S   1   1.00
  26503.1100000              1.000       
S   1   1.00
   9568.7010000              1.000       
S   1   1.00
   3732.4970000              1.000       
S   1   1.00
   1548.4220000              1.000       
S   1   1.00
    675.5420000              1.000       
S   1   1.00
    307.2522000              1.000       
S   1   1.00
    144.6672000              1.000       
S   1   1.00
     70.0438700              1.000       
S   1   1.00
     34.3225000              1.000       
S   1   1.00
     15.6122400              1.000       
S   1   1.00
      7.7437220              1.000       
S   1   1.00
      3.8442600              1.000       
S   1   1.00
      1.7197660              1.000       
S   1   1.00
      0.8325230              1.000       
S   1   1.00
      0.3855640              1.000       
S   1   1.00
      0.0967000              1.000       
S   1   1.00
      0.0477780              1.000       
S   1   1.00
      0.0223630              1.0000000        
S   1   1.00
      3.1672000              1.0000000        
S   1   1.00
      1.6879000              1.0000000        
S   1   1.00
      0.0104700              1.0000000        
P   1   1.00
  22640.9700000              1.000       
P   1   1.00
   5357.5450000              1.000       
P   1   1.00
   1740.3730000              1.000       
P   1   1.00
    666.6163000              1.000       
P   1   1.00
    283.6384000              1.000       
P   1   1.00
    129.7976000              1.000       
P   1   1.00
     62.6795600              1.000       
P   1   1.00
     31.5044100              1.000       
P   1   1.00
     16.2352500              1.000       
P   1   1.00
      8.5183240              1.000       
P   1   1.00
      4.5190050              1.000       
P   1   1.00
      2.3665910              1.000       
P   1   1.00
      1.2152350              1.000       
P   1   1.00
      0.6143480              1.000       
P   1   1.00
      0.3007450              1.000       
P   1   1.00
      0.1258340              1.000       
P   1   1.00
      0.0547190              1.000       
P   1   1.00
      0.0234880              1.0000000        
P   1   1.00
      4.0719000              1.0000000        
P   1   1.00
      0.9994000              1.0000000        
P   1   1.00
      0.0100800              1.0000000        
D   1   1.00
    148.0280000              1.000       
D   1   1.00
     43.8528000              1.000       
D   1   1.00
     16.6646000              1.000       
D   1   1.00
      6.9789300              1.000       
D   1   1.00
      3.1236900              1.000       
D   1   1.00
      1.4468700              1.000       
D   1   1.00
      0.6674070              1.000       
D   1   1.00
      0.3016330              1.000       
D   1   1.00
      0.1326740              1.000       
D   1   1.00
      0.0567390              1.000       
D   1   1.00
      0.0231750              1.0000000        
D   1   1.00
      2.1282000              1.0000000        
D   1   1.00
      0.9691000              1.0000000        
D   1   1.00
      0.0094700              1.0000000        
F   1   1.00
      2.7590000              1.0000000        
F   1   1.00
      1.0490000              1.0000000        
F   1   1.00
      0.3989000              1.0000000        
F   1   1.00
      0.1106000              1.0000000        
F   1   1.00
      0.0306700              1.0000000        
G   1   1.00
      2.4852000              1.0000000        
G   1   1.00
      0.9067000              1.0000000        
G   1   1.00
      0.2530000              1.0000000        
G   1   1.00
      0.0706000              1.0000000        
H   1   1.00
      2.0405000              1.0000000        
H   1   1.00
      0.4934000              1.0000000        
H   1   1.00
      0.1193100              1.0000000        
****

Sc 0
QMC_SC 2 10
COMMENT LINE
3
1 1.64916555 11.00000000
3 3.06833288 18.14082106
2 2.41985389 -35.19310566
COMMENT LINE
1
2 7.60319353 97.62913482
COMMENT LINE
1
2 5.31121835 33.97033635

