%MEM=80GB
%CPU=0-15
%RWF=/scratch/04843/aannabe/gaussian/
%Int=/scratch/04843/aannabe/gaussian/
%D2E=/scratch/04843/aannabe/gaussian/
%NoSave
%CHK=ScO

!Make sure DKHSO is turned off
#P ROCCSD(T)=(maxcyc=150, Full,   ReadAmplitudes)/Gen 5d 7f SCF=(maxcycles=300) Integral(NoXCTest) MaxDisk=500GB Pop=Regular Pseudo=Read Guess=Read !IOp(5/15=2) 

ScO

0 2
Sc 0.0 0.0 0.0
O  0.0 0.0 1.80

Sc     0 
S   1   1.00
      1.19495E+08            1.000    
S   1   1.00
      2.14992E+07            1.000    
S   1   1.00
      4.80703E+06            1.000    
S   1   1.00
      1.28440E+06            1.000    
S   1   1.00
 396595.0000000              1.000    
S   1   1.00
 137575.0000000              1.000    
S   1   1.00
  52366.8000000              1.000    
S   1   1.00
  21454.9000000              1.000    
S   1   1.00
   9316.0600000              1.000    
S   1   1.00
   4235.4000000              1.000    
S   1   1.00
   1997.4400000              1.000    
S   1   1.00
    970.4300000              1.000    
S   1   1.00
    483.2710000              1.000    
S   1   1.00
    245.8060000              1.000    
S   1   1.00
    127.3600000              1.000    
S   1   1.00
     67.0788000              1.000    
S   1   1.00
     35.8371000              1.000    
S   1   1.00
     19.3713000              1.000    
S   1   1.00
     10.5571000              1.000    
S   1   1.00
      5.7724900              1.000    
S   1   1.00
      3.1454000              1.000    
S   1   1.00
      1.6924900              1.000    
S   1   1.00
      0.8886490              1.000    
S   1   1.00
      0.4710930              1.000    
S   1   1.00
      0.2492860              1.000    
S   1   1.00
      0.0999880              1.000    
S   1   1.00
      0.0463690              1.000    
S   1   1.00
      0.0216060              1.0000000        
S   1   1.00
      4.3955000              1.0000000        
S   1   1.00
      1.1564000              1.0000000        
S   1   1.00
      0.0100700              1.0000000        
P   1   1.00
  55070.5000000              1.000       
P   1   1.00
  13741.7000000              1.000       
P   1   1.00
   4365.4000000              1.000       
P   1   1.00
   1642.2600000              1.000       
P   1   1.00
    694.0660000              1.000       
P   1   1.00
    317.7420000              1.000       
P   1   1.00
    153.8990000              1.000       
P   1   1.00
     77.7665000              1.000       
P   1   1.00
     40.6736000              1.000       
P   1   1.00
     21.9061000              1.000       
P   1   1.00
     12.0795000              1.000       
P   1   1.00
      6.7534900              1.000       
P   1   1.00
      3.7632100              1.000       
P   1   1.00
      2.0497300              1.000       
P   1   1.00
      1.0864500              1.000       
P   1   1.00
      0.5640870              1.000       
P   1   1.00
      0.2810200              1.000       
P   1   1.00
      0.1214320              1.000       
P   1   1.00
      0.0533450              1.000       
P   1   1.00
      0.0231430              1.0000000        
P   1   1.00
      5.1300000              1.0000000        
P   1   1.00
      1.2315000              1.0000000        
P   1   1.00
      0.0100400              1.0000000        
D   1   1.00
    206.8490000              1.000       
D   1   1.00
     60.9977000              1.000       
D   1   1.00
     23.3085000              1.000       
D   1   1.00
      9.9288100              1.000       
D   1   1.00
      4.4867000              1.000       
D   1   1.00
      2.1263200              1.000       
D   1   1.00
      1.0200800              1.000       
D   1   1.00
      0.4853730              1.000       
D   1   1.00
      0.2271980              1.000       
D   1   1.00
      0.1042040              1.000       
D   1   1.00
      0.0468350              1.000       
D   1   1.00
      0.0202590              1.0000000        
D   1   1.00
      2.6491000              1.0000000        
D   1   1.00
      1.4102000              1.0000000        
D   1   1.00
      0.0087600              1.0000000        
F   1   1.00
      3.5989000              1.0000000        
F   1   1.00
      1.5145000              1.0000000        
F   1   1.00
      0.6373000              1.0000000        
F   1   1.00
      0.2682000              1.0000000        
F   1   1.00
      0.0809000              1.0000000        
F   1   1.00
      0.0244000              1.0000000        
G   1   1.00
      3.1618000              1.0000000        
G   1   1.00
      1.3736000              1.0000000        
G   1   1.00
      0.5968000              1.0000000        
G   1   1.00
      0.1711000              1.0000000        
G   1   1.00
      0.0490500              1.0000000        
H   1   1.00
      2.9441000              1.0000000        
H   1   1.00
      1.1635000              1.0000000        
H   1   1.00
      0.3290000              1.0000000        
H   1   1.00
      0.0930300              1.0000000        
I   1   1.00
      3.1150000              1.0000000        
I   1   1.00
      1.1682000              1.0000000        
I   1   1.00
      0.4381000              1.0000000        
****
O     0 
S   1   1.00
 164200.0000000              1.000       
S   1   1.00
  24590.0000000              1.000       
S   1   1.00
   5592.0000000              1.000       
S   1   1.00
   1582.0000000              1.000       
S   1   1.00
    516.1000000              1.000       
S   1   1.00
    187.2000000              1.000       
S   1   1.00
     73.9300000              1.000       
S   1   1.00
     31.2200000              1.000       
S   1   1.00
     13.8100000              1.000       
S   1   1.00
      6.2560000              1.000       
S   1   1.00
      2.7760000              1.0000000        
S   1   1.00
      1.1380000              1.0000000        
S   1   1.00
      0.4600000              1.0000000        
S   1   1.00
      0.1829000              1.0000000        
S   1   1.00
     15.6450000              1.0000000        
S   1   1.00
     35.8740000              1.0000000        
S   1   1.00
     82.2590000              1.0000000        
S   1   1.00
    188.6200000              1.0000000        
S   1   1.00
      0.0655000              1.0000000        
P   1   1.00
    195.5000000              1.000        
P   1   1.00
     46.1600000              1.000        
P   1   1.00
     14.5800000              1.000        
P   1   1.00
      5.2960000              1.000        
P   1   1.00
      2.0940000              1.0000000        
P   1   1.00
      0.8471000              1.0000000        
P   1   1.00
      0.3368000              1.0000000        
P   1   1.00
      0.1285000              1.0000000        
P   1   1.00
     14.0490000              1.0000000        
P   1   1.00
     35.4460000              1.0000000        
P   1   1.00
     89.4290000              1.0000000        
P   1   1.00
    225.6300000              1.0000000        
P   1   1.00
      0.0446000              1.0000000        
D   1   1.00
      5.8790000              1.0000000        
D   1   1.00
      2.3070000              1.0000000        
D   1   1.00
      0.9050000              1.0000000        
D   1   1.00
      0.3550000              1.0000000        
D   1   1.00
     16.7030000              1.0000000        
D   1   1.00
     47.3200000              1.0000000        
D   1   1.00
    134.0560000              1.0000000        
D   1   1.00
      0.1310000              1.0000000        
F   1   1.00
      4.0160000              1.0000000        
F   1   1.00
      1.5540000              1.0000000        
F   1   1.00
      0.6010000              1.0000000        
F   1   1.00
     17.3540000              1.0000000        
F   1   1.00
     65.5460000              1.0000000        
F   1   1.00
      0.2370000              1.0000000        
G   1   1.00
      3.3500000              1.0000000        
G   1   1.00
      1.1890000              1.0000000        
G   1   1.00
     48.5780000              1.0000000        
G   1   1.00
      0.5170000              1.0000000        
H   1   1.00
      2.3190000              1.0000000        
H   1   1.00
      1.0240000              1.0000000        
****

Sc 0
QMC 2 10

4
1 1.58710617409555e+01  11.000
3 1.39768603914696e+01  174.5816791505105
2 1.18066501172735e+01 -8.37191205712474e+01  
2 3.92218804399977e+00  5.21234266885254e-01

2
2 1.15422244538484e+01  1.53956297835145e+02  
2 5.02389065637873e+00  1.49787707394566e+01  

2
2 1.16976524663507e+01  9.72469555736396e+01
2 4.60256499744950e+00  1.09115620077775e+01
O 0
QMC 1 2

3
1 12.30997 6.00000
3 14.76962 73.85984
2 13.71419 -47.87600

1
2 13.65512 85.86406

