%mem=80GB
%cpu=0-31
%chk=ScO
%rwf=/scratch/04843/aannabe/gaussian/

!Make sure DKHSO is turned off
#P ROCCSD(T)=(maxcyc=150, Full)/Gen 5d 7f SCF=(maxcycles=300) Integral(NoXCTest) MaxDisk=500GB Pop=Regular Pseudo=Read Guess=Read !IOp(5/15=2) 

ScO

0 2
Sc 0.0 0.0 0.0
O  0.0 0.0 1.60

Sc     0 
S   1   1.00
      1.19495E+08            1.000    
S   1   1.00
      2.14992E+07            1.000    
S   1   1.00
      4.80703E+06            1.000    
S   1   1.00
      1.28440E+06            1.000    
S   1   1.00
 396595.0000000              1.000    
S   1   1.00
 137575.0000000              1.000    
S   1   1.00
  52366.8000000              1.000    
S   1   1.00
  21454.9000000              1.000    
S   1   1.00
   9316.0600000              1.000    
S   1   1.00
   4235.4000000              1.000    
S   1   1.00
   1997.4400000              1.000    
S   1   1.00
    970.4300000              1.000    
S   1   1.00
    483.2710000              1.000    
S   1   1.00
    245.8060000              1.000    
S   1   1.00
    127.3600000              1.000    
S   1   1.00
     67.0788000              1.000    
S   1   1.00
     35.8371000              1.000    
S   1   1.00
     19.3713000              1.000    
S   1   1.00
     10.5571000              1.000    
S   1   1.00
      5.7724900              1.000    
S   1   1.00
      3.1454000              1.000    
S   1   1.00
      1.6924900              1.000    
S   1   1.00
      0.8886490              1.000    
S   1   1.00
      0.4710930              1.000    
S   1   1.00
      0.2492860              1.000    
S   1   1.00
      0.0999880              1.000    
S   1   1.00
      0.0463690              1.000    
S   1   1.00
      0.0216060              1.0000000        
S   1   1.00
      4.3955000              1.0000000        
S   1   1.00
      1.1564000              1.0000000        
S   1   1.00
      0.0100700              1.0000000        
P   1   1.00
  55070.5000000              1.000       
P   1   1.00
  13741.7000000              1.000       
P   1   1.00
   4365.4000000              1.000       
P   1   1.00
   1642.2600000              1.000       
P   1   1.00
    694.0660000              1.000       
P   1   1.00
    317.7420000              1.000       
P   1   1.00
    153.8990000              1.000       
P   1   1.00
     77.7665000              1.000       
P   1   1.00
     40.6736000              1.000       
P   1   1.00
     21.9061000              1.000       
P   1   1.00
     12.0795000              1.000       
P   1   1.00
      6.7534900              1.000       
P   1   1.00
      3.7632100              1.000       
P   1   1.00
      2.0497300              1.000       
P   1   1.00
      1.0864500              1.000       
P   1   1.00
      0.5640870              1.000       
P   1   1.00
      0.2810200              1.000       
P   1   1.00
      0.1214320              1.000       
P   1   1.00
      0.0533450              1.000       
P   1   1.00
      0.0231430              1.0000000        
P   1   1.00
      5.1300000              1.0000000        
P   1   1.00
      1.2315000              1.0000000        
P   1   1.00
      0.0100400              1.0000000        
D   1   1.00
    206.8490000              1.000       
D   1   1.00
     60.9977000              1.000       
D   1   1.00
     23.3085000              1.000       
D   1   1.00
      9.9288100              1.000       
D   1   1.00
      4.4867000              1.000       
D   1   1.00
      2.1263200              1.000       
D   1   1.00
      1.0200800              1.000       
D   1   1.00
      0.4853730              1.000       
D   1   1.00
      0.2271980              1.000       
D   1   1.00
      0.1042040              1.000       
D   1   1.00
      0.0468350              1.000       
D   1   1.00
      0.0202590              1.0000000        
D   1   1.00
      2.6491000              1.0000000        
D   1   1.00
      1.4102000              1.0000000        
D   1   1.00
      0.0087600              1.0000000        
F   1   1.00
      3.5989000              1.0000000        
F   1   1.00
      1.5145000              1.0000000        
F   1   1.00
      0.6373000              1.0000000        
F   1   1.00
      0.2682000              1.0000000        
F   1   1.00
      0.0809000              1.0000000        
F   1   1.00
      0.0244000              1.0000000        
G   1   1.00
      3.1618000              1.0000000        
G   1   1.00
      1.3736000              1.0000000        
G   1   1.00
      0.5968000              1.0000000        
G   1   1.00
      0.1711000              1.0000000        
G   1   1.00
      0.0490500              1.0000000        
H   1   1.00
      2.9441000              1.0000000        
H   1   1.00
      1.1635000              1.0000000        
H   1   1.00
      0.3290000              1.0000000        
H   1   1.00
      0.0930300              1.0000000        
I   1   1.00
      3.1150000              1.0000000        
I   1   1.00
      1.1682000              1.0000000        
I   1   1.00
      0.4381000              1.0000000        
****
O     0 
S   1   1.00
 164200.0000000              1.000       
S   1   1.00
  24590.0000000              1.000       
S   1   1.00
   5592.0000000              1.000       
S   1   1.00
   1582.0000000              1.000       
S   1   1.00
    516.1000000              1.000       
S   1   1.00
    187.2000000              1.000       
S   1   1.00
     73.9300000              1.000       
S   1   1.00
     31.2200000              1.000       
S   1   1.00
     13.8100000              1.000       
S   1   1.00
      6.2560000              1.000       
S   1   1.00
      2.7760000              1.0000000        
S   1   1.00
      1.1380000              1.0000000        
S   1   1.00
      0.4600000              1.0000000        
S   1   1.00
      0.1829000              1.0000000        
S   1   1.00
     15.6450000              1.0000000        
S   1   1.00
     35.8740000              1.0000000        
S   1   1.00
     82.2590000              1.0000000        
S   1   1.00
    188.6200000              1.0000000        
S   1   1.00
      0.0655000              1.0000000        
P   1   1.00
    195.5000000              1.000        
P   1   1.00
     46.1600000              1.000        
P   1   1.00
     14.5800000              1.000        
P   1   1.00
      5.2960000              1.000        
P   1   1.00
      2.0940000              1.0000000        
P   1   1.00
      0.8471000              1.0000000        
P   1   1.00
      0.3368000              1.0000000        
P   1   1.00
      0.1285000              1.0000000        
P   1   1.00
     14.0490000              1.0000000        
P   1   1.00
     35.4460000              1.0000000        
P   1   1.00
     89.4290000              1.0000000        
P   1   1.00
    225.6300000              1.0000000        
P   1   1.00
      0.0446000              1.0000000        
D   1   1.00
      5.8790000              1.0000000        
D   1   1.00
      2.3070000              1.0000000        
D   1   1.00
      0.9050000              1.0000000        
D   1   1.00
      0.3550000              1.0000000        
D   1   1.00
     16.7030000              1.0000000        
D   1   1.00
     47.3200000              1.0000000        
D   1   1.00
    134.0560000              1.0000000        
D   1   1.00
      0.1310000              1.0000000        
F   1   1.00
      4.0160000              1.0000000        
F   1   1.00
      1.5540000              1.0000000        
F   1   1.00
      0.6010000              1.0000000        
F   1   1.00
     17.3540000              1.0000000        
F   1   1.00
     65.5460000              1.0000000        
F   1   1.00
      0.2370000              1.0000000        
G   1   1.00
      3.3500000              1.0000000        
G   1   1.00
      1.1890000              1.0000000        
G   1   1.00
     48.5780000              1.0000000        
G   1   1.00
      0.5170000              1.0000000        
H   1   1.00
      2.3190000              1.0000000        
H   1   1.00
      1.0240000              1.0000000        
****

Sc 0
QMC 3 10

6
1    8.68432435      11.00000000 
2   12.96081047    1293.12711495 
2    3.42726018     -59.34807006 
2   13.92649869   -6626.33658022 
2   14.11355210    5365.41708240 
3    3.87834215      95.52756785 

6
2   14.11432286   -1492.86349923 
2    4.42835597    1499.37242000 
2    7.46045566    1088.20049735 
2   10.23533878   -1981.91696501 
2    4.52489587   -1710.45115474 
2   13.07885945    2625.43810581 

6
2    9.83997641   -2070.12504374 
2    7.25072068    5801.02991534 
2   11.81974746    1554.97375552 
2   14.07433272    -853.69420879 
2    7.08460322   -4878.01776292 
2   14.07166426     462.12967346 

6
2   11.29849449    -570.27953430 
2    5.72119848    -549.43824610 
2    6.53234086    1672.92599442 
2    8.11431019   -2704.80905453 
2    9.95728280    4666.19773963 
2   10.24029445   -2524.96335631 
O 0
QMC 2 2

6
1   10.27717748        6.00000000 
2   15.99566749     1232.50197768 
2   10.46901775     -696.47008301 
2   14.63848010    -2654.22657081 
2   12.57591181     2101.67732548 
3    7.77739102       61.66306486 

6
2   12.39426073  -656683.37638839 
2   12.38126171   657858.57667068 
2    8.57671033      511.50098405 
2    9.89256508    -2579.54665641 
2   28.05641604      -57.68129584 
2   17.24753607      970.30940152 

6
2   14.78918914  -363027.24258186 
2   14.82014018   361852.52314043 
2   22.89622221    -1300.20069256 
2    8.51331893     -181.96869573 
2   11.48609758     2194.87589959 
2   27.22017524      451.19906206 

