%mem=80GB
%cpu=0-31
%chk=tz.chk
%rwf=/scratch/04843/gwang18/zno/

#P ROCCSD(T)=(MaxCyc=150, Full)/Gen SCF=(maxcycle=400, vshift=200) Pseudo=Read Integral(NoXCTest) Pop=Regular MaxDisk=500GB !Guess=Read IOp(5/15=2)

FeO

0 5
Fe 0.0 0.0 0.0
O 0.0 0.0 1.8

Fe     0 
S   1   1.00
 4316265.0000000             1.0000000       
S   1   1.00
 646342.4000000              1.0000000       
S   1   1.00
 147089.7000000              1.0000000       
S   1   1.00
  41661.5200000              1.0000000       
S   1   1.00
  13590.7700000              1.0000000       
S   1   1.00
   4905.7500000              1.0000000       
S   1   1.00
   1912.7460000              1.0000000       
S   1   1.00
    792.6043000              1.0000000       
S   1   1.00
    344.8065000              1.0000000       
S   1   1.00
    155.8999000              1.0000000       
S   1   1.00
     72.2309100              1.0000000       
S   1   1.00
     32.7250600              1.0000000       
S   1   1.00
     15.6676200              1.0000000       
S   1   1.00
      7.5034830              1.0000000       
S   1   1.00
      3.3122230              1.0000000       
S   1   1.00
      1.5584710              1.0000000       
S   1   1.00
      0.6839140              1.0000000       
S   1   1.00
      0.1467570              1.0000000       
S   1   1.00
      0.0705830              1.0000000       
S   1   1.00
      0.0314490              1.0000000        
S   1   1.00
      4.6844000              1.0000000        
S   1   1.00
      1.2204000              1.0000000        
S   1   1.00
      0.0140100              1.0000000        
P   1   1.00
  17745.6900000              1.0000000       
P   1   1.00
   4200.7210000              1.0000000       
P   1   1.00
   1364.4290000              1.0000000       
P   1   1.00
    522.0806000              1.0000000       
P   1   1.00
    221.4595000              1.0000000       
P   1   1.00
    100.9096000              1.0000000       
P   1   1.00
     48.4011500              1.0000000       
P   1   1.00
     23.9853600              1.0000000       
P   1   1.00
     12.1825000              1.0000000       
P   1   1.00
      6.2422980              1.0000000       
P   1   1.00
      3.1109440              1.0000000       
P   1   1.00
      1.5099580              1.0000000       
P   1   1.00
      0.7108450              1.0000000       
P   1   1.00
      0.2725980              1.0000000       
P   1   1.00
      0.1039720              1.0000000       
P   1   1.00
      0.0381660              1.0000000        
P   1   1.00
      6.8788000              1.0000000        
P   1   1.00
      1.5748000              1.0000000        
P   1   1.00
      0.0140100              1.0000000        
D   1   1.00
    114.8840000              1.0000000       
D   1   1.00
     33.8878000              1.0000000       
D   1   1.00
     12.3730000              1.0000000       
D   1   1.00
      4.9992500              1.0000000       
D   1   1.00
      2.0704300              1.0000000       
D   1   1.00
      0.8281830              1.0000000       
D   1   1.00
      0.3075470              1.0000000       
D   1   1.00
      0.0994550              1.0000000        
D   1   1.00
      4.5305000              1.0000000        
D   1   1.00
      2.1205000              1.0000000        
D   1   1.00
      0.0321600              1.0000000        
F   1   1.00
      6.0066000              1.0000000        
F   1   1.00
      2.2522000              1.0000000        
F   1   1.00
      0.7758000              1.0000000        
F   1   1.00
      0.2672300              1.0000000        
G   1   1.00
      5.5068000              1.0000000        
G   1   1.00
      2.0515000              1.0000000        
G   1   1.00
      0.7642600              1.0000000        
****
O     0 
S   1   1.00
  15330.0000000              1.000000       
S   1   1.00
   2299.0000000              1.000000       
S   1   1.00
    522.4000000              1.000000       
S   1   1.00
    147.3000000              1.000000       
S   1   1.00
     47.5500000              1.000000       
S   1   1.00
     16.7600000              1.000000       
S   1   1.00
      6.2070000              1.000000       
S   1   1.00
      0.6882000              1.000000       
S   1   1.00
      1.7520000              1.0000000        
S   1   1.00
      0.2384000              1.0000000        
S   1   1.00
      7.8450000              1.0000000        
S   1   1.00
     21.0320000              1.0000000        
S   1   1.00
      0.0737600              1.0000000        
P   1   1.00
     34.4600000              1.000000        
P   1   1.00
      7.7490000              1.000000        
P   1   1.00
      2.2800000              1.000000        
P   1   1.00
      0.7156000              1.0000000        
P   1   1.00
      0.2140000              1.0000000        
P   1   1.00
     15.1590000              1.0000000        
P   1   1.00
     57.4370000              1.0000000        
P   1   1.00
      0.0597400              1.0000000        
D   1   1.00
      2.3140000              1.0000000        
D   1   1.00
      0.6450000              1.0000000        
D   1   1.00
     15.8580000              1.0000000        
D   1   1.00
      0.2140000              1.0000000        
F   1   1.00
      1.4280000              1.0000000        
F   1   1.00
      0.5000000              1.0000000        
****

Fe 0
GM 2 10

4
1 2.32209171361153e+01  16.000
3 2.35471467972070e+01  371.5346741778448
2 2.34725634460779e+01 -1.81226034452083e+02
2 9.85238815041471e+00 -2.37305236140397e+00

2
2 2.22106269743296e+01  2.77500325474967e+02
2 9.51515800919325e+00  4.62049558527338e+01

2
2 2.45700087184633e+01  1.94998750566171e+02
2 8.86648776669055e+00  3.16794513291187e+01
O 0
QMC 1 2

3
1 12.3099743608243  6.00000000000000
3 14.7696229283522  73.8598461649458
2 13.7141954216007 -47.8760050413118

1
2 13.6551200129796  85.8640652580159

