%MEM=80GB
%CPU=0-15
%RWF=/scratch/04843/aannabe/gaussian/
%Int=/scratch/04843/aannabe/gaussian/
%D2E=/scratch/04843/aannabe/gaussian/
%NoSave
%CHK=MnO

!Make sure DKHSO is turned off
#P ROCCSD(T)=(maxcyc=150, Full, SaveAmplitudes, ReadAmplitudes)/Gen 5d 7f SCF=(maxcycles=300) Integral(NoXCTest) MaxDisk=500GB Pop=Regular Pseudo=Read Guess=Read IOp(5/15=2) 

MnO

0 6
Mn 0.0 0.0 0.0
O  0.0 0.0 1.80

Mn     0 
S   1   1.00
 3960805.0000000             1.000       
S   1   1.00
 593115.5000000              1.000       
S   1   1.00
 134976.8000000              1.000       
S   1   1.00
  38230.6700000              1.000       
S   1   1.00
  12471.5400000              1.000       
S   1   1.00
   4501.7430000              1.000       
S   1   1.00
   1755.2120000              1.000       
S   1   1.00
    727.3039000              1.000       
S   1   1.00
    316.3678000              1.000       
S   1   1.00
    143.0098000              1.000       
S   1   1.00
     66.2180500              1.000       
S   1   1.00
     29.9189600              1.000       
S   1   1.00
     14.3031800              1.000       
S   1   1.00
      6.8394510              1.000       
S   1   1.00
      3.0123740              1.000       
S   1   1.00
      1.4188080              1.000       
S   1   1.00
      0.6236240              1.000       
S   1   1.00
      0.1340980              1.000       
S   1   1.00
      0.0655480              1.000       
S   1   1.00
      0.0295840              1.0000000        
S   1   1.00
      4.1714000              1.0000000        
S   1   1.00
      1.0701000              1.0000000        
S   1   1.00
      0.0133500              1.0000000        
P   1   1.00
  16205.8600000              1.000       
P   1   1.00
   3836.2740000              1.000       
P   1   1.00
   1246.0480000              1.000       
P   1   1.00
    476.7535000              1.000       
P   1   1.00
    202.1895000              1.000       
P   1   1.00
     92.0948700              1.000       
P   1   1.00
     44.1472000              1.000       
P   1   1.00
     21.8546800              1.000       
P   1   1.00
     11.0859600              1.000       
P   1   1.00
      5.6741080              1.000       
P   1   1.00
      2.8231700              1.000       
P   1   1.00
      1.3686210              1.000       
P   1   1.00
      0.6444310              1.000       
P   1   1.00
      0.2483460              1.000       
P   1   1.00
      0.0971750              1.000       
P   1   1.00
      0.0365650              1.0000000        
P   1   1.00
      6.0568000              1.0000000        
P   1   1.00
      1.3911000              1.0000000        
P   1   1.00
      0.0137600              1.0000000        
D   1   1.00
    101.9040000              1.000       
D   1   1.00
     30.0337000              1.000       
D   1   1.00
     10.9238000              1.000       
D   1   1.00
      4.3974000              1.000       
D   1   1.00
      1.8159500              1.000       
D   1   1.00
      0.7257310              1.000       
D   1   1.00
      0.2699610              1.000       
D   1   1.00
      0.0877600              1.0000000        
D   1   1.00
      3.9511000              1.0000000        
D   1   1.00
      1.8488000              1.0000000        
D   1   1.00
      0.0285300              1.0000000        
F   1   1.00
      5.1541000              1.0000000        
F   1   1.00
      1.9044000              1.0000000        
F   1   1.00
      0.6438000              1.0000000        
F   1   1.00
      0.2176400              1.0000000        
G   1   1.00
      4.7163000              1.0000000        
G   1   1.00
      1.7022000              1.0000000        
G   1   1.00
      0.6143600              1.0000000        
****
O     0 
S   1   1.00
  15330.0000000              1.000       
S   1   1.00
   2299.0000000              1.000       
S   1   1.00
    522.4000000              1.000       
S   1   1.00
    147.3000000              1.000       
S   1   1.00
     47.5500000              1.000       
S   1   1.00
     16.7600000              1.000       
S   1   1.00
      6.2070000              1.000       
S   1   1.00
      0.6882000              1.000       
S   1   1.00
      1.7520000              1.0000000        
S   1   1.00
      0.2384000              1.0000000        
S   1   1.00
      7.8450000              1.0000000        
S   1   1.00
     21.0320000              1.0000000        
S   1   1.00
      0.0737600              1.0000000        
P   1   1.00
     34.4600000              1.000        
P   1   1.00
      7.7490000              1.000        
P   1   1.00
      2.2800000              1.000        
P   1   1.00
      0.7156000              1.0000000        
P   1   1.00
      0.2140000              1.0000000        
P   1   1.00
     15.1590000              1.0000000        
P   1   1.00
     57.4370000              1.0000000        
P   1   1.00
      0.0597400              1.0000000        
D   1   1.00
      2.3140000              1.0000000        
D   1   1.00
      0.6450000              1.0000000        
D   1   1.00
     15.8580000              1.0000000        
D   1   1.00
      0.2140000              1.0000000        
F   1   1.00
      1.4280000              1.0000000        
F   1   1.00
      0.5000000              1.0000000        
****

Mn 0
QMC_SC 2 10
COMMENT LINE
3
1 3.29524605 15.00000000
3 3.61599152 49.42869068
2 3.57405761 -61.66925169
COMMENT LINE
1
2 9.99154195 112.85037953
COMMENT LINE
1
2 7.80925218 49.18832867
O 0
QMC 1 2

3
1 12.30997 6.00000
3 14.76962 73.85984
2 13.71419 -47.87600

1
2 13.65512 85.86406

