%mem=64GB
%cpu=0-31
%chk=ScH
!%rwf=wfn

!Make sure DKHSO is turned off, and grid is the same as AE case
#P ROCCSD(T)=(maxcyc=150, Full)/Gen 5d 7f SCF=(maxcycles=300) Integral(NoXCTest) MaxDisk=500GB Pop=Regular Pseudo=Read Guess=Read

ScH

0 1
Sc 0.0 0.0 0.0
H  0.0 0.0 1.60

Sc     0 
S   1   1.00
 8417909.0000000             1.000       
S   1   1.00
 1260312.0000000             1.000       
S   1   1.00
 286798.4000000              1.000       
S   1   1.00
  81234.6900000              1.000       
S   1   1.00
  26503.1100000              1.000       
S   1   1.00
   9568.7010000              1.000       
S   1   1.00
   3732.4970000              1.000       
S   1   1.00
   1548.4220000              1.000       
S   1   1.00
    675.5420000              1.000       
S   1   1.00
    307.2522000              1.000       
S   1   1.00
    144.6672000              1.000       
S   1   1.00
     70.0438700              1.000       
S   1   1.00
     34.3225000              1.000       
S   1   1.00
     15.6122400              1.000       
S   1   1.00
      7.7437220              1.000       
S   1   1.00
      3.8442600              1.000       
S   1   1.00
      1.7197660              1.000       
S   1   1.00
      0.8325230              1.000       
S   1   1.00
      0.3855640              1.000       
S   1   1.00
      0.0967000              1.000       
S   1   1.00
      0.0477780              1.000       
S   1   1.00
      0.0223630              1.0000000        
S   1   1.00
      3.1672000              1.0000000        
S   1   1.00
      1.6879000              1.0000000        
S   1   1.00
      0.0104700              1.0000000        
P   1   1.00
  22640.9700000              1.000       
P   1   1.00
   5357.5450000              1.000       
P   1   1.00
   1740.3730000              1.000       
P   1   1.00
    666.6163000              1.000       
P   1   1.00
    283.6384000              1.000       
P   1   1.00
    129.7976000              1.000       
P   1   1.00
     62.6795600              1.000       
P   1   1.00
     31.5044100              1.000       
P   1   1.00
     16.2352500              1.000       
P   1   1.00
      8.5183240              1.000       
P   1   1.00
      4.5190050              1.000       
P   1   1.00
      2.3665910              1.000       
P   1   1.00
      1.2152350              1.000       
P   1   1.00
      0.6143480              1.000       
P   1   1.00
      0.3007450              1.000       
P   1   1.00
      0.1258340              1.000       
P   1   1.00
      0.0547190              1.000       
P   1   1.00
      0.0234880              1.0000000        
P   1   1.00
      4.0719000              1.0000000        
P   1   1.00
      0.9994000              1.0000000        
P   1   1.00
      0.0100800              1.0000000        
D   1   1.00
    148.0280000              1.000       
D   1   1.00
     43.8528000              1.000       
D   1   1.00
     16.6646000              1.000       
D   1   1.00
      6.9789300              1.000       
D   1   1.00
      3.1236900              1.000       
D   1   1.00
      1.4468700              1.000       
D   1   1.00
      0.6674070              1.000       
D   1   1.00
      0.3016330              1.000       
D   1   1.00
      0.1326740              1.000       
D   1   1.00
      0.0567390              1.000       
D   1   1.00
      0.0231750              1.0000000        
D   1   1.00
      2.1282000              1.0000000        
D   1   1.00
      0.9691000              1.0000000        
D   1   1.00
      0.0094700              1.0000000        
F   1   1.00
      2.7590000              1.0000000        
F   1   1.00
      1.0490000              1.0000000        
F   1   1.00
      0.3989000              1.0000000        
F   1   1.00
      0.1106000              1.0000000        
F   1   1.00
      0.0306700              1.0000000        
G   1   1.00
      2.4852000              1.0000000        
G   1   1.00
      0.9067000              1.0000000        
G   1   1.00
      0.2530000              1.0000000        
G   1   1.00
      0.0706000              1.0000000        
H   1   1.00
      2.0405000              1.0000000        
H   1   1.00
      0.4934000              1.0000000        
H   1   1.00
      0.1193100              1.0000000        
****
H     0 
S   1   1.00
     82.6400000              1.000        
S   1   1.00
     12.4100000              1.000        
S   1   1.00
      2.8240000              1.000        
S   1   1.00
      0.7977000              1.0000000        
S   1   1.00
      0.2581000              1.0000000        
S   1   1.00
      0.0898900              1.0000000        
S   1   1.00
      0.0236300              1.0000000        
P   1   1.00
      2.2920000              1.0000000        
P   1   1.00
      0.8380000              1.0000000        
P   1   1.00
      0.2920000              1.0000000        
P   1   1.00
      0.0848000              1.0000000        
D   1   1.00
      2.0620000              1.0000000        
D   1   1.00
      0.6620000              1.0000000        
D   1   1.00
      0.1900000              1.0000000        
F   1   1.00
      1.3970000              1.0000000        
F   1   1.00
      0.3600000              1.0000000        
****

Sc 0
QMC 2 10

4
1 16.0239438834255  11.000
3 14.0864740368760  176.263382717680
2 11.9398512180529 -83.6814959989029
2 3.69440111537148  0.43282764732009

2
2 11.4946654139250  153.965301756312
2 5.01031394189373  14.9367565765582

2
2 11.4512673043638  97.2172569045336
2 4.76798446255521  10.8170401843697
H 0
QMC 1 0

3
2   21.77696655044365   -10.85192405303825
1   21.24359508259891   1.00000000000000
3   21.24359508259891   21.24359508259891

1
2   1.0   0.0

