%mem=160GB
%cpu=0-31
%chk=5z.chk
%rwf=/scratch/04843/gwang18/znh/

#P ROCCSD(T)=(MaxCyc=150, Full)/Gen SCF=(maxcycle=400, vshift=200) Pseudo=Read Integral(NoXCTest) Pop=Regular MaxDisk=500GB Guess=Read IOp(5/15=2)

FeH

0 4
Fe 0.0 0.0 0.0
H 0.0 0.0 1.7

Fe     0 
S   1   1.00
      1.497690E+08           1.0000000    
S   1   1.00
      2.672250E+07           1.0000000    
S   1   1.00
      5.959000E+06           1.0000000    
S   1   1.00
      1.593610E+06           1.0000000    
S   1   1.00
      4.934640E+05           1.0000000    
S   1   1.00
      1.717900E+05           1.0000000    
S   1   1.00
      6.562090E+04           1.0000000    
S   1   1.00
      2.696560E+04           1.0000000    
S   1   1.00
      1.173530E+04           1.0000000    
S   1   1.00
      5.343430E+03           1.0000000    
S   1   1.00
      2.522500E+03           1.0000000    
S   1   1.00
      1.226430E+03           1.0000000    
S   1   1.00
      6.112690E+02           1.0000000    
S   1   1.00
      3.113080E+02           1.0000000    
S   1   1.00
      1.616240E+02           1.0000000    
S   1   1.00
      8.537670E+01           1.0000000    
S   1   1.00
      4.579110E+01           1.0000000    
S   1   1.00
      2.486770E+01           1.0000000    
S   1   1.00
      1.362020E+01           1.0000000    
S   1   1.00
      7.481060E+00           1.0000000    
S   1   1.00
      4.088170E+00           1.0000000    
S   1   1.00
      2.199050E+00           1.0000000    
S   1   1.00
      1.148150E+00           1.0000000    
S   1   1.00
      5.772650E-01           1.0000000    
S   1   1.00
      1.976350E-01           1.0000000    
S   1   1.00
      1.089860E-01           1.0000000    
S   1   1.00
      5.321600E-02           1.0000000    
S   1   1.00
      2.557100E-02           1.0000000        
S   1   1.00
      6.622400E+00           1.0000000        
S   1   1.00
      2.214000E+00           1.0000000        
S   1   1.00
      0.0122900              1.0000000        
P   1   1.00
      8.694730E+04           1.0000000    
P   1   1.00
      2.125400E+04           1.0000000    
P   1   1.00
      6.741140E+03           1.0000000    
P   1   1.00
      2.557160E+03           1.0000000    
P   1   1.00
      1.093510E+03           1.0000000    
P   1   1.00
      5.061610E+02           1.0000000    
P   1   1.00
      2.471390E+02           1.0000000    
P   1   1.00
      1.254150E+02           1.0000000    
P   1   1.00
      6.565120E+01           1.0000000    
P   1   1.00
      3.530790E+01           1.0000000    
P   1   1.00
      1.942600E+01           1.0000000    
P   1   1.00
      1.084380E+01           1.0000000    
P   1   1.00
      6.043590E+00           1.0000000    
P   1   1.00
      3.302450E+00           1.0000000    
P   1   1.00
      1.763890E+00           1.0000000    
P   1   1.00
      9.213860E-01           1.0000000    
P   1   1.00
      4.603730E-01           1.0000000    
P   1   1.00
      1.837720E-01           1.0000000    
P   1   1.00
      7.583300E-02           1.0000000    
P   1   1.00
      3.109900E-02           1.0000000        
P   1   1.00
      1.001280E+01           1.0000000        
P   1   1.00
      3.186900E+00           1.0000000        
P   1   1.00
      0.0127500              1.0000000        
D   1   1.00
      5.184160E+02           1.0000000    
D   1   1.00
      1.528190E+02           1.0000000    
D   1   1.00
      5.858690E+01           1.0000000    
D   1   1.00
      2.545640E+01           1.0000000    
D   1   1.00
      1.178680E+01           1.0000000    
D   1   1.00
      5.718610E+00           1.0000000    
D   1   1.00
      2.824170E+00           1.0000000    
D   1   1.00
      1.379850E+00           1.0000000    
D   1   1.00
      6.561600E-01           1.0000000    
D   1   1.00
      2.996090E-01           1.0000000    
D   1   1.00
      1.293610E-01           1.0000000    
D   1   1.00
      5.115500E-02           1.0000000        
D   1   1.00
      7.098200E+00           1.0000000        
D   1   1.00
      4.277200E+00           1.0000000        
D   1   1.00
      0.0202300              1.0000000        
F   1   1.00
      1.104710E+01           1.0000000        
F   1   1.00
      4.854100E+00           1.0000000        
F   1   1.00
      2.132900E+00           1.0000000        
F   1   1.00
      9.372000E-01           1.0000000        
F   1   1.00
      3.141000E-01           1.0000000        
F   1   1.00
      0.1052700              1.0000000        
G   1   1.00
      7.547500E+00           1.0000000        
G   1   1.00
      3.673700E+00           1.0000000        
G   1   1.00
      1.788100E+00           1.0000000        
G   1   1.00
      6.564000E-01           1.0000000        
G   1   1.00
      0.2409600              1.0000000        
H   1   1.00
      6.926300E+00           1.0000000        
H   1   1.00
      3.252700E+00           1.0000000        
H   1   1.00
      1.296400E+00           1.0000000        
H   1   1.00
      0.5166900              1.0000000        
I   1   1.00
      7.056900E+00           1.0000000        
I   1   1.00
      1.3776500              1.0000000    
****
H     0 
S   1   1.00
    402.0000000              1.000000        
S   1   1.00
     60.2400000              1.000000        
S   1   1.00
     13.7300000              1.000000        
S   1   1.00
      3.9050000              1.000000        
S   1   1.00
      1.2830000              1.0000000        
S   1   1.00
      0.4655000              1.0000000        
S   1   1.00
      0.1811000              1.0000000        
S   1   1.00
      0.0727900              1.0000000        
S   1   1.00
      0.0207000              1.0000000        
P   1   1.00
      4.5160000              1.0000000        
P   1   1.00
      1.7120000              1.0000000        
P   1   1.00
      0.6490000              1.0000000        
P   1   1.00
      0.2460000              1.0000000        
P   1   1.00
      0.0744000              1.0000000        
D   1   1.00
      2.9500000              1.0000000        
D   1   1.00
      1.2060000              1.0000000        
D   1   1.00
      0.4930000              1.0000000        
D   1   1.00
      0.1560000              1.0000000        
F   1   1.00
      2.5060000              1.0000000        
F   1   1.00
      0.8750000              1.0000000        
F   1   1.00
      0.2740000              1.0000000        
G   1   1.00
      2.3580000              1.0000000        
G   1   1.00
      0.5430000              1.0000000        
****

Fe 0
GM 2 10

4
1 2.32209171361153e+01  16.000
3 2.35471467972070e+01  371.5346741778448
2 2.34725634460779e+01 -1.81226034452083e+02
2 9.85238815041471e+00 -2.37305236140397e+00

2
2 2.22106269743296e+01  2.77500325474967e+02
2 9.51515800919325e+00  4.62049558527338e+01

2
2 2.45700087184633e+01  1.94998750566171e+02
2 8.86648776669055e+00  3.16794513291187e+01
H 0
QMC 1 0

3
2   21.77696655044365      -10.85192405303825
1   21.24359508259891        1.00000000000000
3   21.24359508259891       21.24359508259891

1
2    1.               0.

