%mem=80GB
%cpu=0-31
%rwf=/scratch/04843/gwang18/feo/

#P ROCCSD(T)=(MaxCyc=150, Full)/Gen SCF=(maxcycle=400) Pseudo=Read Integral(NoXCTest) Pop=Regular MaxDisk=500GB

FeO

0 5
Fe 0.0 0.0 0.0
O 0.0 0.0 1.3

Fe     0 
S   1   1.00
      1.497690E+08           1.0000000    
S   1   1.00
      2.672250E+07           1.0000000    
S   1   1.00
      5.959000E+06           1.0000000    
S   1   1.00
      1.593610E+06           1.0000000    
S   1   1.00
      4.934640E+05           1.0000000    
S   1   1.00
      1.717900E+05           1.0000000    
S   1   1.00
      6.562090E+04           1.0000000    
S   1   1.00
      2.696560E+04           1.0000000    
S   1   1.00
      1.173530E+04           1.0000000    
S   1   1.00
      5.343430E+03           1.0000000    
S   1   1.00
      2.522500E+03           1.0000000    
S   1   1.00
      1.226430E+03           1.0000000    
S   1   1.00
      6.112690E+02           1.0000000    
S   1   1.00
      3.113080E+02           1.0000000    
S   1   1.00
      1.616240E+02           1.0000000    
S   1   1.00
      8.537670E+01           1.0000000    
S   1   1.00
      4.579110E+01           1.0000000    
S   1   1.00
      2.486770E+01           1.0000000    
S   1   1.00
      1.362020E+01           1.0000000    
S   1   1.00
      7.481060E+00           1.0000000    
S   1   1.00
      4.088170E+00           1.0000000    
S   1   1.00
      2.199050E+00           1.0000000    
S   1   1.00
      1.148150E+00           1.0000000    
S   1   1.00
      5.772650E-01           1.0000000    
S   1   1.00
      1.976350E-01           1.0000000    
S   1   1.00
      1.089860E-01           1.0000000    
S   1   1.00
      5.321600E-02           1.0000000    
S   1   1.00
      2.557100E-02           1.0000000        
S   1   1.00
      6.622400E+00           1.0000000        
S   1   1.00
      2.214000E+00           1.0000000        
S   1   1.00
      0.0122900              1.0000000        
P   1   1.00
      8.694730E+04           1.0000000    
P   1   1.00
      2.125400E+04           1.0000000    
P   1   1.00
      6.741140E+03           1.0000000    
P   1   1.00
      2.557160E+03           1.0000000    
P   1   1.00
      1.093510E+03           1.0000000    
P   1   1.00
      5.061610E+02           1.0000000    
P   1   1.00
      2.471390E+02           1.0000000    
P   1   1.00
      1.254150E+02           1.0000000    
P   1   1.00
      6.565120E+01           1.0000000    
P   1   1.00
      3.530790E+01           1.0000000    
P   1   1.00
      1.942600E+01           1.0000000    
P   1   1.00
      1.084380E+01           1.0000000    
P   1   1.00
      6.043590E+00           1.0000000    
P   1   1.00
      3.302450E+00           1.0000000    
P   1   1.00
      1.763890E+00           1.0000000    
P   1   1.00
      9.213860E-01           1.0000000    
P   1   1.00
      4.603730E-01           1.0000000    
P   1   1.00
      1.837720E-01           1.0000000    
P   1   1.00
      7.583300E-02           1.0000000    
P   1   1.00
      3.109900E-02           1.0000000        
P   1   1.00
      1.001280E+01           1.0000000        
P   1   1.00
      3.186900E+00           1.0000000        
P   1   1.00
      0.0127500              1.0000000        
D   1   1.00
      5.184160E+02           1.0000000    
D   1   1.00
      1.528190E+02           1.0000000    
D   1   1.00
      5.858690E+01           1.0000000    
D   1   1.00
      2.545640E+01           1.0000000    
D   1   1.00
      1.178680E+01           1.0000000    
D   1   1.00
      5.718610E+00           1.0000000    
D   1   1.00
      2.824170E+00           1.0000000    
D   1   1.00
      1.379850E+00           1.0000000    
D   1   1.00
      6.561600E-01           1.0000000    
D   1   1.00
      2.996090E-01           1.0000000    
D   1   1.00
      1.293610E-01           1.0000000    
D   1   1.00
      5.115500E-02           1.0000000        
D   1   1.00
      7.098200E+00           1.0000000        
D   1   1.00
      4.277200E+00           1.0000000        
D   1   1.00
      0.0202300              1.0000000        
F   1   1.00
      1.104710E+01           1.0000000        
F   1   1.00
      4.854100E+00           1.0000000        
F   1   1.00
      2.132900E+00           1.0000000        
F   1   1.00
      9.372000E-01           1.0000000        
F   1   1.00
      3.141000E-01           1.0000000        
F   1   1.00
      0.1052700              1.0000000        
G   1   1.00
      7.547500E+00           1.0000000        
G   1   1.00
      3.673700E+00           1.0000000        
G   1   1.00
      1.788100E+00           1.0000000        
G   1   1.00
      6.564000E-01           1.0000000        
G   1   1.00
      0.2409600              1.0000000        
H   1   1.00
      6.926300E+00           1.0000000        
H   1   1.00
      3.252700E+00           1.0000000        
H   1   1.00
      1.296400E+00           1.0000000        
H   1   1.00
      0.5166900              1.0000000        
I   1   1.00
      7.056900E+00           1.0000000        
I   1   1.00
      1.3776500              1.0000000    
****
O     0 
S   1   1.00
164200.0000000       1.000000
S   1   1.00
24590.0000000        1.000000
S   1   1.00
5592.0000000         1.000000
S   1   1.00
1582.0000000         1.000000
S   1   1.00
516.1000000          1.000000
S   1   1.00
73.9300000           1.000000
S   1   1.00
31.2200000           1.000000
S   1   1.00
13.8100000           1.000000
S   1   1.00
6.2560000            1.000000
S   1   1.00
2.7760000            1.0000000
S   1   1.00
1.1380000            1.0000000
S   1   1.00
0.4600000            1.0000000
S   1   1.00
0.1829000            1.0000000
S   1   1.00
15.6450000           1.0000000
S   1   1.00
35.8740000           1.0000000
S   1   1.00
82.2590000           1.0000000
S   1   1.00
188.6200000          1.0000000
S   1   1.00
0.0655000            1.0000000
P   1   1.00
195.5000000          1.000000
P   1   1.00
46.1600000           1.000000
P   1   1.00
14.5800000           1.000000
P   1   1.00
5.2960000            1.000000
P   1   1.00
2.0940000            1.0000000
P   1   1.00
0.8471000            1.0000000
P   1   1.00
0.3368000            1.0000000
P   1   1.00
0.1285000            1.0000000
P   1   1.00
14.0490000           1.0000000
P   1   1.00
35.4460000           1.0000000
P   1   1.00
89.4290000           1.0000000
P   1   1.00
225.6300000          1.0000000
P   1   1.00
0.0446000            1.0000000
D   1   1.00
5.8790000            1.0000000
D   1   1.00
2.3070000            1.0000000
D   1   1.00
0.9050000            1.0000000
D   1   1.00
0.3550000            1.0000000
D   1   1.00
16.7030000           1.0000000
D   1   1.00
47.3200000           1.0000000
D   1   1.00
134.0560000          1.0000000
D   1   1.00
0.1310000            1.0000000
F   1   1.00
4.0160000            1.0000000
F   1   1.00
1.5540000            1.0000000
F   1   1.00
0.6010000            1.0000000
F   1   1.00
17.3540000           1.0000000
F   1   1.00
65.5460000           1.0000000
F   1   1.00
0.2370000            1.0000000
G   1   1.00
3.3500000            1.0000000
G   1   1.00
1.1890000            1.0000000
G   1   1.00
48.5780000           1.0000000
G   1   1.00
0.5170000            1.0000000
H   1   1.00
2.3190000            1.0000000
H   1   1.00
1.0240000            1.0000000
****

Fe 0
GM 2 10

4
1 14.4907932225793   16.0
3 14.7508039327877   231.8526915612702
2 13.5133204150806  -125.7103636456496 
2 8.13499951855963   1.26697878288400

2
2 24.6419613851123   286.3499351469308 
2 8.40886788022111   45.10829177941056

2
2 8.27485631235689   28.52519211262868
2 23.8323272423734   181.1354201934640 
O 0
QMC 1 2

3
1 12.3099743608243  6.00000000000000
3 14.7696229283522  73.8598461649458
2 13.7141954216007 -47.8760050413118

1
2 13.6551200129796  85.8640652580159

