%MEM=80GB
%CPU=0-15
%RWF=/scratch/04843/aannabe/gaussian/
%Int=/scratch/04843/aannabe/gaussian/
%D2E=/scratch/04843/aannabe/gaussian/
%NoSave
%CHK=Mn


!Make sure DKHSO is turned off
#P ROCCSD(T)=(maxcyc=150, Full)/Gen 5d 7f SCF=(maxcycles=300, NoVarAcc, VShift=200) MaxDisk=100GB Pop=Regular Pseudo=Read Guess=Read !IOp(5/15=2) 
!#P ROHF/Gen 5d 7f SCF=(maxcycles=300, VShift=300) MaxDisk=100GB Pop=Regular Pseudo=Read !Guess=Read IOp(5/15=2) 

Mn

0 6
Mn 0.0 0.0 0.0

Mn     0 
S   1   1.00
      1.37766E+08            1.000    
S   1   1.00
      2.45640E+07            1.000    
S   1   1.00
      5.47999E+06            1.000    
S   1   1.00
      1.46664E+06            1.000    
S   1   1.00
 454421.0000000              1.000    
S   1   1.00
 158216.0000000              1.000    
S   1   1.00
  60404.3000000              1.000    
S   1   1.00
  24793.6000000              1.000    
S   1   1.00
  10772.3000000              1.000    
S   1   1.00
   4895.5400000              1.000    
S   1   1.00
   2306.5600000              1.000    
S   1   1.00
   1119.5600000              1.000    
S   1   1.00
    557.3810000              1.000    
S   1   1.00
    283.7780000              1.000    
S   1   1.00
    147.4360000              1.000    
S   1   1.00
     78.0227000              1.000    
S   1   1.00
     41.9679000              1.000    
S   1   1.00
     22.8778000              1.000    
S   1   1.00
     12.5845000              1.000    
S   1   1.00
      6.9417000              1.000    
S   1   1.00
      3.8062900              1.000    
S   1   1.00
      2.0503100              1.000    
S   1   1.00
      1.0683800              1.000    
S   1   1.00
      0.5366060              1.000    
S   1   1.00
      0.1832600              1.000    
S   1   1.00
      0.1052970              1.000    
S   1   1.00
      0.0514640              1.000    
S   1   1.00
      0.0246780              1.0000000        
S   1   1.00
      5.8340000              1.0000000        
S   1   1.00
      1.9879000              1.0000000        
S   1   1.00
      0.0118300              1.0000000        
P   1   1.00
  79296.8000000              1.000       
P   1   1.00
  19317.1000000              1.000       
P   1   1.00
   6114.1000000              1.000       
P   1   1.00
   2316.2600000              1.000       
P   1   1.00
    989.6900000              1.000       
P   1   1.00
    457.9420000              1.000       
P   1   1.00
    223.6420000              1.000       
P   1   1.00
    113.5940000              1.000       
P   1   1.00
     59.5621000              1.000       
P   1   1.00
     32.1072000              1.000       
P   1   1.00
     17.7103000              1.000       
P   1   1.00
      9.9062100              1.000       
P   1   1.00
      5.5224300              1.000       
P   1   1.00
      3.0083200              1.000       
P   1   1.00
      1.5987300              1.000       
P   1   1.00
      0.8308680              1.000       
P   1   1.00
      0.4135380              1.000       
P   1   1.00
      0.1712140              1.000       
P   1   1.00
      0.0721220              1.000       
P   1   1.00
      0.0301100              1.0000000        
P   1   1.00
      8.8318000              1.0000000        
P   1   1.00
      2.6917000              1.0000000        
P   1   1.00
      0.0125700              1.0000000        
D   1   1.00
    449.7850000              1.000       
D   1   1.00
    132.7510000              1.000       
D   1   1.00
     50.9528000              1.000       
D   1   1.00
     22.1594000              1.000       
D   1   1.00
     10.2612000              1.000       
D   1   1.00
      4.9780300              1.000       
D   1   1.00
      2.4573000              1.000       
D   1   1.00
      1.2010100              1.000       
D   1   1.00
      0.5725160              1.000       
D   1   1.00
      0.2625960              1.000       
D   1   1.00
      0.1141400              1.000       
D   1   1.00
      0.0456420              1.0000000        
D   1   1.00
      5.9718000              1.0000000        
D   1   1.00
      3.5428000              1.0000000        
D   1   1.00
      0.0182500              1.0000000        
F   1   1.00
      9.4747000              1.0000000        
F   1   1.00
      4.1404000              1.0000000        
F   1   1.00
      1.8093000              1.0000000        
F   1   1.00
      0.7906000              1.0000000        
F   1   1.00
      0.2614000              1.0000000        
F   1   1.00
      0.0864300              1.0000000        
G   1   1.00
      6.4908000              1.0000000        
G   1   1.00
      3.1225000              1.0000000        
G   1   1.00
      1.5022000              1.0000000        
G   1   1.00
      0.5327000              1.0000000        
G   1   1.00
      0.1889000              1.0000000        
H   1   1.00
      6.0071000              1.0000000        
H   1   1.00
      2.7692000              1.0000000        
H   1   1.00
      1.0636000              1.0000000        
H   1   1.00
      0.4085100              1.0000000        
I   1   1.00
      6.0846000              1.0000000        
I   1   1.00
      2.5736000              1.0000000        
I   1   1.00
      1.0885500              1.0000000        
****

Mn 0
ECP10MDF 3 10
F-Komponente
1
2 1.000000 0.000000
S-F
2
2 18.520000 226.430902
2 8.373000 30.359072
P-F
2
2 18.920000 142.154705
2 8.017000 21.536509
D-F
2
2 22.720000 -22.568119
2 7.640000 -1.205810

