%MEM=80GB
%CPU=0-15
%RWF=/scratch/04843/aannabe/gaussian/
%Int=/scratch/04843/aannabe/gaussian/
%D2E=/scratch/04843/aannabe/gaussian/
%NoSave
%CHK=MnO

!Make sure DKHSO is turned off
#P ROCCSD(T)=(maxcyc=150, Full, SaveAmplitudes, ReadAmplitudes)/Gen 5d 7f SCF=(maxcycles=300) Integral(NoXCTest) MaxDisk=500GB Pop=Regular Pseudo=Read Guess=Read IOp(5/15=2) 

MnO

0 6
Mn 0.0 0.0 0.0
O  0.0 0.0 1.20

Mn     0 
S   1   1.00
 3960805.0000000             1.000       
S   1   1.00
 593115.5000000              1.000       
S   1   1.00
 134976.8000000              1.000       
S   1   1.00
  38230.6700000              1.000       
S   1   1.00
  12471.5400000              1.000       
S   1   1.00
   4501.7430000              1.000       
S   1   1.00
   1755.2120000              1.000       
S   1   1.00
    727.3039000              1.000       
S   1   1.00
    316.3678000              1.000       
S   1   1.00
    143.0098000              1.000       
S   1   1.00
     66.2180500              1.000       
S   1   1.00
     29.9189600              1.000       
S   1   1.00
     14.3031800              1.000       
S   1   1.00
      6.8394510              1.000       
S   1   1.00
      3.0123740              1.000       
S   1   1.00
      1.4188080              1.000       
S   1   1.00
      0.6236240              1.000       
S   1   1.00
      0.1340980              1.000       
S   1   1.00
      0.0655480              1.000       
S   1   1.00
      0.0295840              1.0000000        
S   1   1.00
      4.1714000              1.0000000        
S   1   1.00
      1.0701000              1.0000000        
S   1   1.00
      0.0133500              1.0000000        
P   1   1.00
  16205.8600000              1.000       
P   1   1.00
   3836.2740000              1.000       
P   1   1.00
   1246.0480000              1.000       
P   1   1.00
    476.7535000              1.000       
P   1   1.00
    202.1895000              1.000       
P   1   1.00
     92.0948700              1.000       
P   1   1.00
     44.1472000              1.000       
P   1   1.00
     21.8546800              1.000       
P   1   1.00
     11.0859600              1.000       
P   1   1.00
      5.6741080              1.000       
P   1   1.00
      2.8231700              1.000       
P   1   1.00
      1.3686210              1.000       
P   1   1.00
      0.6444310              1.000       
P   1   1.00
      0.2483460              1.000       
P   1   1.00
      0.0971750              1.000       
P   1   1.00
      0.0365650              1.0000000        
P   1   1.00
      6.0568000              1.0000000        
P   1   1.00
      1.3911000              1.0000000        
P   1   1.00
      0.0137600              1.0000000        
D   1   1.00
    101.9040000              1.000       
D   1   1.00
     30.0337000              1.000       
D   1   1.00
     10.9238000              1.000       
D   1   1.00
      4.3974000              1.000       
D   1   1.00
      1.8159500              1.000       
D   1   1.00
      0.7257310              1.000       
D   1   1.00
      0.2699610              1.000       
D   1   1.00
      0.0877600              1.0000000        
D   1   1.00
      3.9511000              1.0000000        
D   1   1.00
      1.8488000              1.0000000        
D   1   1.00
      0.0285300              1.0000000        
F   1   1.00
      5.1541000              1.0000000        
F   1   1.00
      1.9044000              1.0000000        
F   1   1.00
      0.6438000              1.0000000        
F   1   1.00
      0.2176400              1.0000000        
G   1   1.00
      4.7163000              1.0000000        
G   1   1.00
      1.7022000              1.0000000        
G   1   1.00
      0.6143600              1.0000000        
****
O     0 
S   1   1.00
  15330.0000000              1.000       
S   1   1.00
   2299.0000000              1.000       
S   1   1.00
    522.4000000              1.000       
S   1   1.00
    147.3000000              1.000       
S   1   1.00
     47.5500000              1.000       
S   1   1.00
     16.7600000              1.000       
S   1   1.00
      6.2070000              1.000       
S   1   1.00
      0.6882000              1.000       
S   1   1.00
      1.7520000              1.0000000        
S   1   1.00
      0.2384000              1.0000000        
S   1   1.00
      7.8450000              1.0000000        
S   1   1.00
     21.0320000              1.0000000        
S   1   1.00
      0.0737600              1.0000000        
P   1   1.00
     34.4600000              1.000        
P   1   1.00
      7.7490000              1.000        
P   1   1.00
      2.2800000              1.000        
P   1   1.00
      0.7156000              1.0000000        
P   1   1.00
      0.2140000              1.0000000        
P   1   1.00
     15.1590000              1.0000000        
P   1   1.00
     57.4370000              1.0000000        
P   1   1.00
      0.0597400              1.0000000        
D   1   1.00
      2.3140000              1.0000000        
D   1   1.00
      0.6450000              1.0000000        
D   1   1.00
     15.8580000              1.0000000        
D   1   1.00
      0.2140000              1.0000000        
F   1   1.00
      1.4280000              1.0000000        
F   1   1.00
      0.5000000              1.0000000        
****

Mn 0
QMC 3 10

6
1  18.43432244      15.00000000
2  12.74175213   31301.56494509
2  11.67410914   -4576.35463180
2  12.90376156  -26766.73507377
2   4.97171871      -4.09339906
3   8.79264819     276.51483655

6
2  13.56187871    2771.78238977
2   9.44812535   12553.69429672
2  10.76503846    1886.79316638
2  11.65345594   -9260.55332402
2   8.48073002   -8943.95003535
2   6.96707028    1041.73211249

6
2  12.71342918  -23181.32761179
2  18.03174513  111577.22220216
2  16.68279060  -42399.84416473
2  13.18867124   16025.79106608
2  18.42861128  -76264.60573764
2  12.90928974   14270.47832347

6
2   8.13384228    -382.83904013
2  14.28699222    5676.99013005
2  11.14406629   35338.03440844
2  11.37674978  -38881.44458388
2  18.25818233    3550.66026420
2  17.73146307   -5317.47975296
O 0
QMC 2 2

6
1   10.27717748        6.00000000 
2   15.99566749     1232.50197768 
2   10.46901775     -696.47008301 
2   14.63848010    -2654.22657081 
2   12.57591181     2101.67732548 
3    7.77739102       61.66306486 

6
2   12.39426073  -656683.37638839 
2   12.38126171   657858.57667068 
2    8.57671033      511.50098405 
2    9.89256508    -2579.54665641 
2   28.05641604      -57.68129584 
2   17.24753607      970.30940152 

6
2   14.78918914  -363027.24258186 
2   14.82014018   361852.52314043 
2   22.89622221    -1300.20069256 
2    8.51331893     -181.96869573 
2   11.48609758     2194.87589959 
2   27.22017524      451.19906206 

