%mem=80GB
%nproc=16
%chk=H
!%rwf=wfn

!Make sure DKHSO is turned off, and grid is the same as AE case
#P ROHF/Gen 5d 7f SCF=(maxcycles=500) Integral(Grid=525302) MaxDisk=5000GB Pop=Full Pseudo=Read Guess=Read

H

0 2
H 0.0 0.0 0.0

H     0 
S   1   1.00
     33.8700000              1.000        
S   1   1.00
      5.0950000              1.000        
S   1   1.00
      1.1590000              1.000        
S   1   1.00
      0.3258000              1.0000000        
S   1   1.00
      0.1027000              1.0000000        
S   1   1.00
      0.0252600              1.0000000        
P   1   1.00
      1.4070000              1.0000000        
P   1   1.00
      0.3880000              1.0000000        
P   1   1.00
      0.1020000              1.0000000        
D   1   1.00
      1.0570000              1.0000000        
D   1   1.00
      0.2470000              1.0000000        
****

H 0
QMC 1 0

3
2   21.77696655044365   -10.85192405303825
1   21.24359508259891   1.00000000000000
3   21.24359508259891   21.24359508259891

1
2   1.0   0.0

