%MEM=80GB
%CPU=0-19
%RWF=/scratch/04843/aannabe/gaussian/
%Int=/scratch/04843/aannabe/gaussian/
%D2E=/scratch/04843/aannabe/gaussian/
%NoSave
%CHK=TiO

!Make sure DKHSO is turned off
#P ROCCSD(T)=(maxcyc=150, Full, SaveAmplitudes, ReadAmplitudes)/Gen 5d 7f SCF=(maxcycles=300, VShift=400) Integral(NoXCTest) MaxDisk=500GB Pop=Full Pseudo=Read Guess=Read !IOp(5/15=2) 

TiO

0 3
Ti 0.0 0.0 0.0
O  0.0 0.0 1.40

Ti     0 
S   1   1.00
  29338.1600000              1.000       
S   1   1.00
  10592.6600000              1.000       
S   1   1.00
   4132.0560000              1.000       
S   1   1.00
   1714.2350000              1.000       
S   1   1.00
    747.9151000              1.000       
S   1   1.00
    340.1991000              1.000       
S   1   1.00
    160.2060000              1.000       
S   1   1.00
     77.5885100              1.000       
S   1   1.00
     38.0448900              1.000       
S   1   1.00
     17.3536200              1.000       
S   1   1.00
      8.6420620              1.000       
S   1   1.00
      4.3044040              1.000       
S   1   1.00
      1.9377180              1.000       
S   1   1.00
      0.9365940              1.000       
S   1   1.00
      0.4326240              1.000       
S   1   1.00
      0.1073520              1.000       
S   1   1.00
      0.0520340              1.000       
S   1   1.00
      0.0240380              1.0000000        
S   1   1.00
      4.0519000              1.0000000        
S   1   1.00
      1.0592000              1.0000000        
S   1   1.00
      0.0111000              1.0000000        
P   1   1.00
   1962.6530000              1.000       
P   1   1.00
    751.7338000              1.000       
P   1   1.00
    319.8833000              1.000       
P   1   1.00
    146.4300000              1.000       
P   1   1.00
     70.7486100              1.000       
P   1   1.00
     35.5908800              1.000       
P   1   1.00
     18.3689300              1.000       
P   1   1.00
      9.6586550              1.000       
P   1   1.00
      5.1367300              1.000       
P   1   1.00
      2.6988720              1.000       
P   1   1.00
      1.3897030              1.000       
P   1   1.00
      0.7031630              1.000       
P   1   1.00
      0.3441230              1.000       
P   1   1.00
      0.1413750              1.000       
P   1   1.00
      0.0607910              1.000       
P   1   1.00
      0.0258310              1.0000000        
P   1   1.00
      4.8241000              1.0000000        
P   1   1.00
      1.2211000              1.0000000        
P   1   1.00
      0.0109800              1.0000000        
D   1   1.00
    199.9720000              1.000       
D   1   1.00
     59.1869000              1.000       
D   1   1.00
     22.6013000              1.000       
D   1   1.00
      9.5739100              1.000       
D   1   1.00
      4.3177100              1.000       
D   1   1.00
      2.0237300              1.000       
D   1   1.00
      0.9471690              1.000       
D   1   1.00
      0.4338770              1.000       
D   1   1.00
      0.1921260              1.000       
D   1   1.00
      0.0814040              1.000       
D   1   1.00
      0.0322330              1.0000000        
D   1   1.00
      2.7829000              1.0000000        
D   1   1.00
      1.3657000              1.0000000        
D   1   1.00
      0.0127600              1.0000000        
F   1   1.00
      3.7192000              1.0000000        
F   1   1.00
      1.4838000              1.0000000        
F   1   1.00
      0.5920000              1.0000000        
F   1   1.00
      0.1796000              1.0000000        
F   1   1.00
      0.0544900              1.0000000        
G   1   1.00
      3.2099000              1.0000000        
G   1   1.00
      1.2652000              1.0000000        
G   1   1.00
      0.3947000              1.0000000        
G   1   1.00
      0.1231300              1.0000000        
H   1   1.00
      2.7676000              1.0000000        
H   1   1.00
      0.8524000              1.0000000        
H   1   1.00
      0.2625300              1.0000000        
****
O     0 
S   1   1.00
  61420.0000000              1.000       
S   1   1.00
   9199.0000000              1.000       
S   1   1.00
   2091.0000000              1.000       
S   1   1.00
    590.9000000              1.000       
S   1   1.00
    192.3000000              1.000       
S   1   1.00
     69.3200000              1.000       
S   1   1.00
     26.9700000              1.000       
S   1   1.00
     11.1000000              1.000       
S   1   1.00
      4.6820000              1.000       
S   1   1.00
      1.4280000              1.0000000        
S   1   1.00
      0.5547000              1.0000000        
S   1   1.00
      0.2067000              1.0000000        
S   1   1.00
     12.9740000              1.0000000        
S   1   1.00
     34.9000000              1.0000000        
S   1   1.00
     93.8810000              1.0000000        
S   1   1.00
      0.0695900              1.0000000        
P   1   1.00
     63.4200000              1.000        
P   1   1.00
     14.6600000              1.000        
P   1   1.00
      4.4590000              1.000        
P   1   1.00
      1.5310000              1.0000000        
P   1   1.00
      0.5302000              1.0000000        
P   1   1.00
      0.1750000              1.0000000        
P   1   1.00
     14.4750000              1.0000000        
P   1   1.00
     42.7300000              1.0000000        
P   1   1.00
    126.1400000              1.0000000        
P   1   1.00
      0.0534800              1.0000000        
D   1   1.00
      3.7750000              1.0000000        
D   1   1.00
      1.3000000              1.0000000        
D   1   1.00
      0.4440000              1.0000000        
D   1   1.00
     14.9270000              1.0000000        
D   1   1.00
     57.5440000              1.0000000        
D   1   1.00
      0.1540000              1.0000000        
F   1   1.00
      2.6660000              1.0000000        
F   1   1.00
      0.8590000              1.0000000        
F   1   1.00
     26.4830000              1.0000000        
F   1   1.00
      0.3240000              1.0000000        
G   1   1.00
      1.8460000              1.0000000        
G   1   1.00
      0.7140000              1.0000000        
****

Ti 0
QMC 2 10

4
1 1.82762173790793e+01  12.000
3 1.60224017826574e+01  219.31460854895158
2 1.36339407717172e+01 -9.42912733019428e+01  
2 5.22766015086108e+00  3.34405944970707e-01
  
2
2 1.26352272154932e+01  1.73911533001584e+02  
2 6.20237844233956e+00  1.89713915122681e+01  
  
2
2 1.27824691021075e+01  1.11478970439331e+02
2 5.26978914737322e+00  1.13119473129763e+01
O 0
QMC 1 2

3
1 12.30997 6.00000
3 14.76962 73.85984
2 13.71419 -47.87600

1
2 13.65512 85.86406

