%mem=80GB
%cpu=0-31
%chk=qz.chk
%rwf=/scratch/04843/gwang18/znh/

#P ROCCSD(T)=(MaxCyc=150, Full)/Gen SCF=(maxcycle=400, vshift=200) Pseudo=Read Integral(NoXCTest) Pop=Regular MaxDisk=500GB Guess=Read IOp(5/15=2)

CoH

0 3
Co 0.0 0.0 0.0
H 0.0 0.0 1.2

Co     0 
S   1   1.00
      0.1437022E+08          1.000000       
S   1   1.00
 2151540.0000000             1.000000       
S   1   1.00
 489625.7000000              1.000000       
S   1   1.00
 138690.3000000              1.000000       
S   1   1.00
  45249.8900000              1.000000       
S   1   1.00
  16337.6200000              1.000000       
S   1   1.00
   6373.0730000              1.000000       
S   1   1.00
   2643.9580000              1.000000       
S   1   1.00
   1153.6140000              1.000000       
S   1   1.00
    524.8606000              1.000000       
S   1   1.00
    247.3069000              1.000000       
S   1   1.00
    119.9063000              1.000000       
S   1   1.00
     58.9642900              1.000000       
S   1   1.00
     27.1361600              1.000000       
S   1   1.00
     13.6891200              1.000000       
S   1   1.00
      6.8827710              1.000000       
S   1   1.00
      3.1446470              1.000000       
S   1   1.00
      1.5062660              1.000000       
S   1   1.00
      0.6872680              1.000000       
S   1   1.00
      0.1609720              1.000000       
S   1   1.00
      0.0730170              1.000000       
S   1   1.00
      0.0320710              1.0000000        
S   1   1.00
      6.2451000              1.0000000        
S   1   1.00
      1.7752000              1.0000000        
S   1   1.00
      0.0140900              1.0000000        
P   1   1.00
  41961.4000000              1.000000       
P   1   1.00
   9928.3060000              1.000000       
P   1   1.00
   3224.9710000              1.000000       
P   1   1.00
   1235.2930000              1.000000       
P   1   1.00
    525.8469000              1.000000       
P   1   1.00
    240.9762000              1.000000       
P   1   1.00
    116.6418000              1.000000       
P   1   1.00
     58.8483400              1.000000       
P   1   1.00
     30.5291000              1.000000       
P   1   1.00
     16.1694300              1.000000       
P   1   1.00
      8.6642360              1.000000       
P   1   1.00
      4.5919430              1.000000       
P   1   1.00
      2.3810480              1.000000       
P   1   1.00
      1.2062460              1.000000       
P   1   1.00
      0.5888220              1.000000       
P   1   1.00
      0.2248930              1.000000       
P   1   1.00
      0.0904480              1.000000       
P   1   1.00
      0.0358200              1.0000000        
P   1   1.00
      9.4150000              1.0000000        
P   1   1.00
      2.5758000              1.0000000        
P   1   1.00
      0.0141900              1.0000000        
D   1   1.00
    371.5660000              1.000000       
D   1   1.00
    110.1150000              1.000000       
D   1   1.00
     42.4255000              1.000000       
D   1   1.00
     18.3369000              1.000000       
D   1   1.00
      8.4573000              1.000000       
D   1   1.00
      4.0417900              1.000000       
D   1   1.00
      1.9260300              1.000000       
D   1   1.00
      0.8942810              1.000000       
D   1   1.00
      0.3979880              1.000000       
D   1   1.00
      0.1665000              1.000000       
D   1   1.00
      0.0630250              1.0000000        
D   1   1.00
      6.2748000              1.0000000        
D   1   1.00
      3.3097000              1.0000000        
D   1   1.00
      0.0238600              1.0000000        
F   1   1.00
      8.9724000              1.0000000        
F   1   1.00
      3.7773000              1.0000000        
F   1   1.00
      1.5902000              1.0000000        
F   1   1.00
      0.5363000              1.0000000        
F   1   1.00
      0.1808700              1.0000000        
G   1   1.00
      7.3377000              1.0000000        
G   1   1.00
      3.2254000              1.0000000        
G   1   1.00
      1.2510000              1.0000000        
G   1   1.00
      0.4852100              1.0000000        
H   1   1.00
      6.7172000              1.0000000        
H   1   1.00
      2.7485000              1.0000000        
H   1   1.00
      1.1246100              1.0000000        
****
H     0 
S   1   1.00
     82.6400000              1.000000        
S   1   1.00
     12.4100000              1.000000        
S   1   1.00
      2.8240000              1.000000        
S   1   1.00
      0.7977000              1.0000000        
S   1   1.00
      0.2581000              1.0000000        
S   1   1.00
      0.0898900              1.0000000        
S   1   1.00
      0.0236300              1.0000000        
P   1   1.00
      2.2920000              1.0000000        
P   1   1.00
      0.8380000              1.0000000        
P   1   1.00
      0.2920000              1.0000000        
P   1   1.00
      0.0848000              1.0000000        
D   1   1.00
      2.0620000              1.0000000        
D   1   1.00
      0.6620000              1.0000000        
D   1   1.00
      0.1900000              1.0000000        
F   1   1.00
      1.3970000              1.0000000        
F   1   1.00
      0.3600000              1.0000000        
****

Co 0
ECP10MDF 3 10
F-Komponente
1
2 1.000000 0.000000
S-F
2
2 23.660000 283.960566
2 10.610000 47.156846
P-F
2
2 25.040000 182.212236
2 10.440000 35.233352
D-F
2
2 29.540000 -26.475333
2 10.180000 -1.825787
H 0
QMC 1 0

3
2   21.77696655044365      -10.85192405303825
1   21.24359508259891        1.00000000000000
3   21.24359508259891       21.24359508259891

1
2    1.               0.

