%MEM=80GB
%CPU=0-15
%RWF=/scratch/04843/aannabe/gaussian/
%Int=/scratch/04843/aannabe/gaussian/
%D2E=/scratch/04843/aannabe/gaussian/
%NoSave
%CHK=TiO

!Make sure DKHSO is turned off
#P ROCCSD(T)=(maxcyc=150, Full,   ReadAmplitudes)/Gen 5d 7f SCF=(maxcycles=300) Integral(NoXCTest) MaxDisk=500GB Pop=Regular Pseudo=Read Guess=Read !IOp(5/15=2) 

TiO

0 3
Ti 0.0 0.0 0.0
O  0.0 0.0 1.70

Ti     0 
S   1   1.00
      1.22647E+08            1.000    
S   1   1.00
      2.19562E+07            1.000    
S   1   1.00
      4.90233E+06            1.000    
S   1   1.00
      1.31060E+06            1.000    
S   1   1.00
 405228.0000000              1.000    
S   1   1.00
 140757.0000000              1.000    
S   1   1.00
  53625.1000000              1.000    
S   1   1.00
  21976.2000000              1.000    
S   1   1.00
   9539.6000000              1.000    
S   1   1.00
   4334.3700000              1.000    
S   1   1.00
   2042.8900000              1.000    
S   1   1.00
    992.3080000              1.000    
S   1   1.00
    494.4460000              1.000    
S   1   1.00
    251.9070000              1.000    
S   1   1.00
    130.9050000              1.000    
S   1   1.00
     69.2368000              1.000    
S   1   1.00
     37.1847000              1.000    
S   1   1.00
     20.2157000              1.000    
S   1   1.00
     11.0765000              1.000    
S   1   1.00
      6.0786700              1.000    
S   1   1.00
      3.3127700              1.000    
S   1   1.00
      1.7725000              1.000    
S   1   1.00
      0.9173780              1.000    
S   1   1.00
      0.4692830              1.000    
S   1   1.00
      0.2192670              1.000    
S   1   1.00
      0.1058110              1.000    
S   1   1.00
      0.0484430              1.000    
S   1   1.00
      0.0225350              1.0000000        
S   1   1.00
      4.2553000              1.0000000        
S   1   1.00
      1.2538000              1.0000000        
S   1   1.00
      0.0104800              1.0000000        
P   1   1.00
  59284.9000000              1.000       
P   1   1.00
  14323.6000000              1.000       
P   1   1.00
   4537.2200000              1.000       
P   1   1.00
   1726.5400000              1.000       
P   1   1.00
    741.0750000              1.000       
P   1   1.00
    343.8070000              1.000       
P   1   1.00
    167.8840000              1.000       
P   1   1.00
     85.0394000              1.000       
P   1   1.00
     44.3829000              1.000       
P   1   1.00
     23.7928000              1.000       
P   1   1.00
     13.0536000              1.000       
P   1   1.00
      7.2687200              1.000       
P   1   1.00
      4.0380500              1.000       
P   1   1.00
      2.1929400              1.000       
P   1   1.00
      1.1616200              1.000       
P   1   1.00
      0.6032500              1.000       
P   1   1.00
      0.3001740              1.000       
P   1   1.00
      0.1301310              1.000       
P   1   1.00
      0.0572230              1.000       
P   1   1.00
      0.0249100              1.0000000        
P   1   1.00
      5.7813000              1.0000000        
P   1   1.00
      1.6500000              1.0000000        
P   1   1.00
      0.0108400              1.0000000        
D   1   1.00
    261.2460000              1.000       
D   1   1.00
     77.4454000              1.000       
D   1   1.00
     29.6879000              1.000       
D   1   1.00
     12.7642000              1.000       
D   1   1.00
      5.8299200              1.000       
D   1   1.00
      2.7978300              1.000       
D   1   1.00
      1.3638300              1.000       
D   1   1.00
      0.6600370              1.000       
D   1   1.00
      0.3136990              1.000       
D   1   1.00
      0.1449780              1.000       
D   1   1.00
      0.0647720              1.000       
D   1   1.00
      0.0273760              1.0000000        
D   1   1.00
      3.4534000              1.0000000        
D   1   1.00
      1.9445000              1.0000000        
D   1   1.00
      0.0115700              1.0000000        
F   1   1.00
      5.0709000              1.0000000        
F   1   1.00
      2.1837000              1.0000000        
F   1   1.00
      0.9404000              1.0000000        
F   1   1.00
      0.4049000              1.0000000        
F   1   1.00
      0.1277000              1.0000000        
F   1   1.00
      0.0402700              1.0000000        
G   1   1.00
      4.0100000              1.0000000        
G   1   1.00
      1.8192000              1.0000000        
G   1   1.00
      0.8254000              1.0000000        
G   1   1.00
      0.2544000              1.0000000        
G   1   1.00
      0.0784100              1.0000000        
H   1   1.00
      3.6168000              1.0000000        
H   1   1.00
      1.5432000              1.0000000        
H   1   1.00
      0.5044000              1.0000000        
H   1   1.00
      0.1648600              1.0000000        
I   1   1.00
      3.1547000              1.0000000        
I   1   1.00
      0.9864000              1.0000000        
I   1   1.00
      0.3084200              1.0000000        
****
O     0 
S   1   1.00
 164200.0000000              1.000       
S   1   1.00
  24590.0000000              1.000       
S   1   1.00
   5592.0000000              1.000       
S   1   1.00
   1582.0000000              1.000       
S   1   1.00
    516.1000000              1.000       
S   1   1.00
    187.2000000              1.000       
S   1   1.00
     73.9300000              1.000       
S   1   1.00
     31.2200000              1.000       
S   1   1.00
     13.8100000              1.000       
S   1   1.00
      6.2560000              1.000       
S   1   1.00
      2.7760000              1.0000000        
S   1   1.00
      1.1380000              1.0000000        
S   1   1.00
      0.4600000              1.0000000        
S   1   1.00
      0.1829000              1.0000000        
S   1   1.00
     15.6450000              1.0000000        
S   1   1.00
     35.8740000              1.0000000        
S   1   1.00
     82.2590000              1.0000000        
S   1   1.00
    188.6200000              1.0000000        
S   1   1.00
      0.0655000              1.0000000        
P   1   1.00
    195.5000000              1.000        
P   1   1.00
     46.1600000              1.000        
P   1   1.00
     14.5800000              1.000        
P   1   1.00
      5.2960000              1.000        
P   1   1.00
      2.0940000              1.0000000        
P   1   1.00
      0.8471000              1.0000000        
P   1   1.00
      0.3368000              1.0000000        
P   1   1.00
      0.1285000              1.0000000        
P   1   1.00
     14.0490000              1.0000000        
P   1   1.00
     35.4460000              1.0000000        
P   1   1.00
     89.4290000              1.0000000        
P   1   1.00
    225.6300000              1.0000000        
P   1   1.00
      0.0446000              1.0000000        
D   1   1.00
      5.8790000              1.0000000        
D   1   1.00
      2.3070000              1.0000000        
D   1   1.00
      0.9050000              1.0000000        
D   1   1.00
      0.3550000              1.0000000        
D   1   1.00
     16.7030000              1.0000000        
D   1   1.00
     47.3200000              1.0000000        
D   1   1.00
    134.0560000              1.0000000        
D   1   1.00
      0.1310000              1.0000000        
F   1   1.00
      4.0160000              1.0000000        
F   1   1.00
      1.5540000              1.0000000        
F   1   1.00
      0.6010000              1.0000000        
F   1   1.00
     17.3540000              1.0000000        
F   1   1.00
     65.5460000              1.0000000        
F   1   1.00
      0.2370000              1.0000000        
G   1   1.00
      3.3500000              1.0000000        
G   1   1.00
      1.1890000              1.0000000        
G   1   1.00
     48.5780000              1.0000000        
G   1   1.00
      0.5170000              1.0000000        
H   1   1.00
      2.3190000              1.0000000        
H   1   1.00
      1.0240000              1.0000000        
****

Ti 0
QMC 3 10

6
1    8.52499277       12.00000000 
2   15.24334130     2048.39512837 
2    9.82605516     -812.71625987 
2   13.73638629    -6663.62886396 
2   12.65450510     5396.93874773 
3    7.54790686      102.29991323 

6
2    6.07854372    -5355.67455847 
2    6.60870356     4802.76911085 
2    5.40803832     1304.66429039 
2   10.43037595    -1133.61681175 
2   18.40796253     -258.77562194 
2   15.38428800      672.53886697 

6
2    9.60319864    56981.17339652 
2    9.66270511   -57002.97844363 
2   15.06515908     1335.72576887 
2   16.36599976     -813.49634683 
2    7.86420177     -720.45341501 
2   10.25452653      239.69852194 

6
2   10.56650824    -4262.72074057 
2    2.71368379       -1.34753473 
2    9.33780917     1569.82864567 
2   31.60560687       -0.45387550 
2   12.28030141     5034.44351544 
2   13.36770170    -2350.67846378 
O 0
QMC 1 2

3
1 12.30997 6.00000
3 14.76962 73.85984
2 13.71419 -47.87600

1
2 13.65512 85.86406

