%mem=80GB
%cpu=0-31
%chk=qz.chk
%rwf=/scratch/04843/gwang18/feo/

#P ROCCSD(T)=(MaxCyc=150, Full)/Gen SCF=(maxcycle=400) Pseudo=Read Integral(NoXCTest) Pop=Regular MaxDisk=500GB

FeO

0 5
Fe 0.0 0.0 0.0
O 0.0 0.0 1.6

Fe     0 
S   1   1.00
      0.1327714E+08          1.0000000       
S   1   1.00
 1987888.0000000             1.0000000       
S   1   1.00
 452387.1000000              1.0000000       
S   1   1.00
 128143.7000000              1.0000000       
S   1   1.00
  41809.1700000              1.0000000       
S   1   1.00
  15095.3300000              1.0000000       
S   1   1.00
   5888.4380000              1.0000000       
S   1   1.00
   2442.8760000              1.0000000       
S   1   1.00
   1065.8570000              1.0000000       
S   1   1.00
    484.9096000              1.0000000       
S   1   1.00
    228.4585000              1.0000000       
S   1   1.00
    110.7453000              1.0000000       
S   1   1.00
     54.4311600              1.0000000       
S   1   1.00
     25.0109600              1.0000000       
S   1   1.00
     12.5926200              1.0000000       
S   1   1.00
      6.3232020              1.0000000       
S   1   1.00
      2.8833840              1.0000000       
S   1   1.00
      1.3828680              1.0000000       
S   1   1.00
      0.6322010              1.0000000       
S   1   1.00
      0.1492380              1.0000000       
S   1   1.00
      0.0684940              1.0000000       
S   1   1.00
      0.0303810              1.0000000        
S   1   1.00
      5.7900000              1.0000000        
S   1   1.00
      1.7335000              1.0000000        
S   1   1.00
      0.0134800              1.0000000        
P   1   1.00
  38282.0500000              1.0000000       
P   1   1.00
   9061.5560000              1.0000000       
P   1   1.00
   2944.4500000              1.0000000       
P   1   1.00
   1128.1580000              1.0000000       
P   1   1.00
    480.3380000              1.0000000       
P   1   1.00
    220.1368000              1.0000000       
P   1   1.00
    106.5482000              1.0000000       
P   1   1.00
     53.7426200              1.0000000       
P   1   1.00
     27.8631800              1.0000000       
P   1   1.00
     14.7438200              1.0000000       
P   1   1.00
      7.8933510              1.0000000       
P   1   1.00
      4.1794970              1.0000000       
P   1   1.00
      2.1656690              1.0000000       
P   1   1.00
      1.0972400              1.0000000       
P   1   1.00
      0.5360850              1.0000000       
P   1   1.00
      0.2024530              1.0000000       
P   1   1.00
      0.0816950              1.0000000       
P   1   1.00
      0.0326140              1.0000000        
P   1   1.00
      8.3687000              1.0000000        
P   1   1.00
      2.2601000              1.0000000        
P   1   1.00
      0.0130200              1.0000000        
D   1   1.00
    350.9950000              1.0000000       
D   1   1.00
    103.6670000              1.0000000       
D   1   1.00
     39.7043000              1.0000000       
D   1   1.00
     17.0310000              1.0000000       
D   1   1.00
      7.7890200              1.0000000       
D   1   1.00
      3.6995500              1.0000000       
D   1   1.00
      1.7553200              1.0000000       
D   1   1.00
      0.8128450              1.0000000       
D   1   1.00
      0.3614410              1.0000000       
D   1   1.00
      0.1513460              1.0000000       
D   1   1.00
      0.0575130              1.0000000        
D   1   1.00
      5.4967000              1.0000000        
D   1   1.00
      2.8925000              1.0000000        
D   1   1.00
      0.0218600              1.0000000        
F   1   1.00
      7.7828000              1.0000000        
F   1   1.00
      3.2584000              1.0000000        
F   1   1.00
      1.3641000              1.0000000        
F   1   1.00
      0.4564000              1.0000000        
F   1   1.00
      0.1527000              1.0000000        
G   1   1.00
      6.3816000              1.0000000        
G   1   1.00
      2.7717000              1.0000000        
G   1   1.00
      1.0505000              1.0000000        
G   1   1.00
      0.3981500              1.0000000        
H   1   1.00
      5.8964000              1.0000000        
H   1   1.00
      2.3448000              1.0000000        
H   1   1.00
      0.9324500              1.0000000    
****
O     0 
S   1   1.00
  61420.0000000              1.000000       
S   1   1.00
   9199.0000000              1.000000       
S   1   1.00
   2091.0000000              1.000000       
S   1   1.00
    590.9000000              1.000000       
S   1   1.00
    192.3000000              1.000000       
S   1   1.00
     69.3200000              1.000000       
S   1   1.00
     26.9700000              1.000000       
S   1   1.00
     11.1000000              1.000000       
S   1   1.00
      4.6820000              1.000000       
S   1   1.00
      1.4280000              1.0000000        
S   1   1.00
      0.5547000              1.0000000        
S   1   1.00
      0.2067000              1.0000000        
S   1   1.00
     12.9740000              1.0000000        
S   1   1.00
     34.9000000              1.0000000        
S   1   1.00
     93.8810000              1.0000000        
S   1   1.00
      0.0695900              1.0000000        
P   1   1.00
     63.4200000              1.000000        
P   1   1.00
     14.6600000              1.000000        
P   1   1.00
      4.4590000              1.000000        
P   1   1.00
      1.5310000              1.0000000        
P   1   1.00
      0.5302000              1.0000000        
P   1   1.00
      0.1750000              1.0000000        
P   1   1.00
     14.4750000              1.0000000        
P   1   1.00
     42.7300000              1.0000000        
P   1   1.00
    126.1400000              1.0000000        
P   1   1.00
      0.0534800              1.0000000        
D   1   1.00
      3.7750000              1.0000000        
D   1   1.00
      1.3000000              1.0000000        
D   1   1.00
      0.4440000              1.0000000        
D   1   1.00
     14.9270000              1.0000000        
D   1   1.00
     57.5440000              1.0000000        
D   1   1.00
      0.1540000              1.0000000        
F   1   1.00
      2.6660000              1.0000000        
F   1   1.00
      0.8590000              1.0000000        
F   1   1.00
     26.4830000              1.0000000        
F   1   1.00
      0.3240000              1.0000000        
G   1   1.00
      1.8460000              1.0000000        
G   1   1.00
      0.7140000              1.0000000        
****

Fe 0
GM 2 10

4
1 14.4907932225793   16.0
3 14.7508039327877   231.8526915612702
2 13.5133204150806  -125.7103636456496 
2 8.13499951855963   1.26697878288400

2
2 24.6419613851123   286.3499351469308 
2 8.40886788022111   45.10829177941056

2
2 8.27485631235689   28.52519211262868
2 23.8323272423734   181.1354201934640 
O 0
QMC 1 2

3
1 12.3099743608243  6.00000000000000
3 14.7696229283522  73.8598461649458
2 13.7141954216007 -47.8760050413118

1
2 13.6551200129796  85.8640652580159

