%MEM=80GB
%CPU=0-15
%RWF=/scratch/04843/aannabe/gaussian/
%Int=/scratch/04843/aannabe/gaussian/
%D2E=/scratch/04843/aannabe/gaussian/
%NoSave
%CHK=Cr


!Make sure DKHSO is turned on
!#P ROCCSD(T)=(maxcyc=150, Full)/Gen 5d 7f SCF=(maxcycles=300) Integral(NoXCTest, DKHSO) MaxDisk=100GB Pop=Regular Guess=Read !IOp(5/15=2) 
#P ROHF/Gen 5d 7f SCF=(maxcycles=300) Integral(NoXCTest, DKHSO) MaxDisk=100GB Pop=Regular Guess=Permute IOp(5/15=2) 

Cr

0 7
Cr 0.0 0.0 0.0

Cr     0 
S   19   1.00
 6177194.0000000             0.0000840        
 924929.5000000              0.0002410        
 210486.5000000              0.0006580        
  59620.0500000              0.0016730        
  19450.7600000              0.0042480        
   7022.0560000              0.0108890        
   2738.7630000              0.0278590        
   1135.8140000              0.0678880        
    495.0923000              0.1468020        
    224.7487000              0.2556230        
    105.3836000              0.2984080        
     50.1935900              0.1745600        
     22.2495700              0.0696900        
     10.9826500              0.1141840        
      5.3836650              0.0840700        
      2.3436850              0.0099260        
      1.1052020             -0.0003160        
      0.4878480              0.0000590        
      0.0895990              0.0000160        
S   19   1.00
 6177194.0000000            -0.0000460        
 924929.5000000             -0.0001340        
 210486.5000000             -0.0003640        
  59620.0500000             -0.0009270        
  19450.7600000             -0.0023610        
   7022.0560000             -0.0060760        
   2738.7630000             -0.0157230        
   1135.8140000             -0.0390780        
    495.0923000             -0.0887110        
    224.7487000             -0.1701120        
    105.3836000             -0.2472980        
     50.1935900             -0.1863810        
     22.2495700              0.1584390        
     10.9826500              0.5481250        
      5.3836650              0.3885790        
      2.3436850              0.0492810        
      1.1052020             -0.0043050        
      0.4878480              0.0001110        
      0.0895990             -0.0000270        
S   19   1.00
 6177194.0000000             0.0000100        
 924929.5000000              0.0000290        
 210486.5000000              0.0000780        
  59620.0500000              0.0002000        
  19450.7600000              0.0005110        
   7022.0560000              0.0013170        
   2738.7630000              0.0034470        
   1135.8140000              0.0086680        
    495.0923000              0.0204950        
    224.7487000              0.0417010        
    105.3836000              0.0693000        
     50.1935900              0.0581890        
     22.2495700             -0.0761810        
     10.9826500             -0.3561380        
      5.3836650             -0.3726510        
      2.3436850              0.2838030        
      1.1052020              0.7149340        
      0.4878480              0.2908760        
      0.0895990              0.0069090        
S   19   1.00
 6177194.0000000            -0.0000020        
 924929.5000000             -0.0000070        
 210486.5000000             -0.0000180        
  59620.0500000             -0.0000450        
  19450.7600000             -0.0001170        
   7022.0560000             -0.0002980        
   2738.7630000             -0.0007900        
   1135.8140000             -0.0019570        
    495.0923000             -0.0047250        
    224.7487000             -0.0093680        
    105.3836000             -0.0162500        
     50.1935900             -0.0125490        
     22.2495700              0.0155500        
     10.9826500              0.0916910        
      5.3836650              0.0854260        
      2.3436850             -0.0662500        
      1.1052020             -0.2868520        
      0.4878480             -0.1703030        
      0.0895990              0.6967260        
S   19   1.00
 6177194.0000000             0.0000040        
 924929.5000000              0.0000130        
 210486.5000000              0.0000360        
  59620.0500000              0.0000880        
  19450.7600000              0.0002390        
   7022.0560000              0.0005570        
   2738.7630000              0.0016820        
   1135.8140000              0.0034900        
    495.0923000              0.0105120        
    224.7487000              0.0153920        
    105.3836000              0.0402770        
     50.1935900              0.0073940        
     22.2495700              0.0140570        
     10.9826500             -0.2936730        
      5.3836650              0.0030100        
      2.3436850             -0.1758500        
      1.1052020              1.5006460        
      0.4878480             -1.1269400        
      0.0895990             -1.2270880        
S   19   1.00
 6177194.0000000            -0.0000070        
 924929.5000000             -0.0000210        
 210486.5000000             -0.0000580        
  59620.0500000             -0.0001450        
  19450.7600000             -0.0003840        
   7022.0560000             -0.0009370        
   2738.7630000             -0.0026480        
   1135.8140000             -0.0060270        
    495.0923000             -0.0162070        
    224.7487000             -0.0279550        
    105.3836000             -0.0593480        
     50.1935900             -0.0278590        
     22.2495700              0.0170670        
     10.9826500              0.4205010        
      5.3836650              0.2026980        
      2.3436850             -0.4517940        
      1.1052020             -1.9067910        
      0.4878480              2.8955150        
      0.0895990             -2.2377970        
S   1   1.00
      0.0334230              1.0000000        
S   1   1.00
      4.8281000              1.0000000        
S   1   1.00
      1.1499000              1.0000000        
S   1   1.00
      0.0124700              1.0000000        
P   15   1.00
  14454.2000000              0.0001150        
   3421.6760000              0.0005600        
   1111.3870000              0.0026530        
    425.1918000              0.0106120        
    180.2623000              0.0358670        
     82.0611700              0.0993240        
     39.2972600              0.2135250        
     19.4195900              0.3339970        
      9.8288990              0.3282920        
      5.0168100              0.1505820        
      2.4870910              0.0200020        
      1.1987800             -0.0015630        
      0.5586950             -0.0012910        
      0.2093660             -0.0002120        
      0.0847220              0.0000240        
P   15   1.00
  14454.2000000             -0.0000400        
   3421.6760000             -0.0001940        
   1111.3870000             -0.0009220        
    425.1918000             -0.0037110        
    180.2623000             -0.0127060        
     82.0611700             -0.0361210        
     39.2972600             -0.0805400        
     19.4195900             -0.1323120        
      9.8288990             -0.1340350        
      5.0168100              0.0347070        
      2.4870910              0.3356300        
      1.1987800              0.4612780        
      0.5586950              0.2785730        
      0.2093660              0.0412210        
      0.0847220             -0.0038000        
P   15   1.00
  14454.2000000              0.0000090        
   3421.6760000              0.0000460        
   1111.3870000              0.0002190        
    425.1918000              0.0008780        
    180.2623000              0.0030300        
     82.0611700              0.0085680        
     39.2972600              0.0193430        
     19.4195900              0.0315600        
      9.8288990              0.0330560        
      5.0168100             -0.0135900        
      2.4870910             -0.0940090        
      1.1987800             -0.1498470        
      0.5586950             -0.0657160        
      0.2093660              0.2711740        
      0.0847220              0.5750590        
P   15   1.00
  14454.2000000              0.0000120        
   3421.6760000              0.0000590        
   1111.3870000              0.0002770        
    425.1918000              0.0011210        
    180.2623000              0.0038200        
     82.0611700              0.0109400        
     39.2972600              0.0243010        
     19.4195900              0.0405940        
      9.8288990              0.0407730        
      5.0168100             -0.0134400        
      2.4870910             -0.1211060        
      1.1987800             -0.1827370        
      0.5586950             -0.1200720        
      0.2093660              0.4449520        
      0.0847220              0.6413430        
P   15   1.00
  14454.2000000              0.0000250        
   3421.6760000              0.0001160        
   1111.3870000              0.0006020        
    425.1918000              0.0021980        
    180.2623000              0.0083680        
     82.0611700              0.0212190        
     39.2972600              0.0545450        
     19.4195900              0.0746730        
      9.8288990              0.1147010        
      5.0168100             -0.0783210        
      2.4870910             -0.2465150        
      1.1987800             -0.6773230        
      0.5586950              0.7479410        
      0.2093660              0.9845060        
      0.0847220             -1.0295180        
P   1   1.00
      0.0332780              1.0000000        
P   1   1.00
      5.2718000              1.0000000        
P   1   1.00
      1.2083000              1.0000000        
P   1   1.00
      0.0130700              1.0000000        
D   7   1.00
     89.4745000              0.0036170        
     26.3368000              0.0255390        
      9.5342900              0.0968340        
      3.8211800              0.2351220        
      1.5716900              0.3574460        
      0.6264220              0.3691600        
      0.2330550              0.2380780        
D   7   1.00
     89.4745000             -0.0041240        
     26.3368000             -0.0290980        
      9.5342900             -0.1143160        
      3.8211800             -0.2719580        
      1.5716900             -0.3162730        
      0.6264220              0.0374570        
      0.2330550              0.5894820        
D   7   1.00
     89.4745000              0.0059530        
     26.3368000              0.0422270        
      9.5342900              0.1730970        
      3.8211800              0.3927110        
      1.5716900              0.1544870        
      0.6264220             -0.8070190        
      0.2330550              0.0009440        
D   1   1.00
      0.0763030              1.0000000        
D   1   1.00
      3.4093000              1.0000000        
D   1   1.00
      1.5874000              1.0000000        
D   1   1.00
      0.0249800              1.0000000        
F   1   1.00
      4.3629000              1.0000000        
F   1   1.00
      1.5864000              1.0000000        
F   1   1.00
      0.5231000              1.0000000        
F   1   1.00
      0.1724900              1.0000000        
G   1   1.00
      4.0406000              1.0000000        
G   1   1.00
      1.4199000              1.0000000        
G   1   1.00
      0.4989600              1.0000000        
****

1-9 11 13 15 12 14 10


