%MEM=160GB
%CPU=0-31
%RWF=/scratch/04843/aannabe/gaussian/
%Int=/scratch/04843/aannabe/gaussian/
%D2E=/scratch/04843/aannabe/gaussian/
%NoSave
%CHK=MnH

!Make sure DKHSO is turned off
#P ROCCSD(T)=(maxcyc=150, Full, SaveAmplitudes, ReadAmplitudes)/Gen 5d 7f SCF=(maxcycles=300, VShift=400) Integral(NoXCTest) MaxDisk=500GB Pop=Full Pseudo=Read Guess=Read IOp(5/15=2) 

MnH

0 7
Mn 0.0 0.0 0.0
H  0.0 0.0 1.40

Mn     0 
S   1   1.00
  12471.5400000              1.000       
S   1   1.00
   4501.7430000              1.000       
S   1   1.00
   1755.2120000              1.000       
S   1   1.00
    727.3039000              1.000       
S   1   1.00
    316.3678000              1.000       
S   1   1.00
    143.0098000              1.000       
S   1   1.00
     66.2180500              1.000       
S   1   1.00
     29.9189600              1.000       
S   1   1.00
     14.3031800              1.000       
S   1   1.00
      6.8394510              1.000       
S   1   1.00
      3.0123740              1.000       
S   1   1.00
      1.4188080              1.000       
S   1   1.00
      0.6236240              1.000       
S   1   1.00
      0.1340980              1.000       
S   1   1.00
      0.0655480              1.000       
S   1   1.00
      0.0295840              1.0000000        
S   1   1.00
      4.1714000              1.0000000        
S   1   1.00
      1.0701000              1.0000000        
S   1   1.00
      0.0133500              1.0000000        
P   1   1.00
   3836.2740000              1.000       
P   1   1.00
   1246.0480000              1.000       
P   1   1.00
    476.7535000              1.000       
P   1   1.00
    202.1895000              1.000       
P   1   1.00
     92.0948700              1.000       
P   1   1.00
     44.1472000              1.000       
P   1   1.00
     21.8546800              1.000       
P   1   1.00
     11.0859600              1.000       
P   1   1.00
      5.6741080              1.000       
P   1   1.00
      2.8231700              1.000       
P   1   1.00
      1.3686210              1.000       
P   1   1.00
      0.6444310              1.000       
P   1   1.00
      0.2483460              1.000       
P   1   1.00
      0.0971750              1.000       
P   1   1.00
      0.0365650              1.0000000        
P   1   1.00
      6.0568000              1.0000000        
P   1   1.00
      1.3911000              1.0000000        
P   1   1.00
      0.0137600              1.0000000        
D   1   1.00
    101.9040000              1.000       
D   1   1.00
     30.0337000              1.000       
D   1   1.00
     10.9238000              1.000       
D   1   1.00
      4.3974000              1.000       
D   1   1.00
      1.8159500              1.000       
D   1   1.00
      0.7257310              1.000       
D   1   1.00
      0.2699610              1.000       
D   1   1.00
      0.0877600              1.0000000        
D   1   1.00
      3.9511000              1.0000000        
D   1   1.00
      1.8488000              1.0000000        
D   1   1.00
      0.0285300              1.0000000        
F   1   1.00
      5.1541000              1.0000000        
F   1   1.00
      1.9044000              1.0000000        
F   1   1.00
      0.6438000              1.0000000        
F   1   1.00
      0.2176400              1.0000000        
G   1   1.00
      4.7163000              1.0000000        
G   1   1.00
      1.7022000              1.0000000        
G   1   1.00
      0.6143600              1.0000000        
****
H     0 
S   1   1.00
     33.8700000              1.000        
S   1   1.00
      5.0950000              1.000        
S   1   1.00
      1.1590000              1.000        
S   1   1.00
      0.3258000              1.0000000        
S   1   1.00
      0.1027000              1.0000000        
S   1   1.00
      0.0252600              1.0000000        
P   1   1.00
      1.4070000              1.0000000        
P   1   1.00
      0.3880000              1.0000000        
P   1   1.00
      0.1020000              1.0000000        
D   1   1.00
      1.0570000              1.0000000        
D   1   1.00
      0.2470000              1.0000000        
****

Mn 0
QMC 2 10

4
1 21.9061889165646  15.000
3 21.3460106502946  328.592833748469
2 21.2709151561577 -162.049880236930
2 7.90771171832952 -1.85679609726467

2
2 18.9263045646384  244.669998154192
2 8.31114792810788  33.5399867642789

2
2 20.1624493129539  162.350195446201
2 7.79269955633082  24.1593874178617
H 0
QMC 1 0

3
2   21.77696655044365   -10.85192405303825
1   21.24359508259891   1.00000000000000
3   21.24359508259891   21.24359508259891

1
2   1.0   0.0

