%mem=160GB
%cpu=0-31
%chk=tz.chk
%rwf=/scratch/04843/gwang18/znh/

#P ROCCSD(T)=(MaxCyc=150, FrzINGC)/Gen SCF=(maxcycle=400, vshift=200) Integral(DKHSO, NoXCTest) Pop=Regular MaxDisk=500GB Guess=Read IOp(5/15=2)

CoH

0 3
Co 0.0 0.0 0.0
H 0.0 0.0 1.1

Co     0 
S   1   1.00
 4675675.0000000             1.000000        
S   1   1.00
 700161.5000000              1.000000        
S   1   1.00
 159337.3000000              1.000000        
S   1   1.00
  45130.4600000              1.000000        
S   1   1.00
  14722.3800000              1.000000        
S   1   1.00
   5314.2220000              1.000000        
S   1   1.00
   2072.0180000              1.000000        
S   1   1.00
    858.6188000              1.000000        
S   1   1.00
    373.5497000              1.000000        
S   1   1.00
    168.9229000              1.000000        
S   1   1.00
     78.2963900              1.000000        
S   1   1.00
     35.5212300              1.000000        
S   1   1.00
     17.0414400              1.000000        
S   1   1.00
      8.1730000              1.000000        
S   1   1.00
      3.6103180              1.000000        
S   1   1.00
      1.6970470              1.000000        
S   1   1.00
      0.7435320              1.000000        
S   1   1.00
      0.1583440              1.000000        
S   1   1.00
      0.0750360              1.000000        
S   1   1.00
      0.0330910              1.0000000        
S   1   1.00
      5.2255000              1.0000000        
S   1   1.00
      1.3638000              1.0000000        
S   1   1.00
      0.0145900              1.0000000        
P   1   1.00
  19267.7800000              1.000000       
P   1   1.00
   4560.9860000              1.000000       
P   1   1.00
   1481.4360000              1.000000       
P   1   1.00
    566.8671000              1.000000       
P   1   1.00
    240.4910000              1.000000       
P   1   1.00
    109.6105000              1.000000       
P   1   1.00
     52.5949100              1.000000       
P   1   1.00
     26.0836100              1.000000       
P   1   1.00
     13.2614300              1.000000       
P   1   1.00
      6.7997780              1.000000       
P   1   1.00
      3.3934140              1.000000       
P   1   1.00
      1.6487660              1.000000       
P   1   1.00
      0.7762820              1.000000       
P   1   1.00
      0.2972090              1.000000       
P   1   1.00
      0.1133520              1.000000       
P   1   1.00
      0.0415100              1.0000000        
P   1   1.00
      7.7411000              1.0000000        
P   1   1.00
      1.7672000              1.0000000        
P   1   1.00
      0.0152000              1.0000000        
D   1   1.00
    128.3920000              1.000000       
D   1   1.00
     37.8938000              1.000000       
D   1   1.00
     13.8798000              1.000000       
D   1   1.00
      5.6254400              1.000000       
D   1   1.00
      2.3353900              1.000000       
D   1   1.00
      0.9351920              1.000000       
D   1   1.00
      0.3469530              1.000000       
D   1   1.00
      0.1117230              1.0000000        
D   1   1.00
      5.1384000              1.0000000        
D   1   1.00
      2.4056000              1.0000000        
D   1   1.00
      0.0359800              1.0000000        
F   1   1.00
      6.9240000              1.0000000        
F   1   1.00
      2.6244000              1.0000000        
F   1   1.00
      0.9170000              1.0000000        
F   1   1.00
      0.3204100              1.0000000        
G   1   1.00
      6.3248000              1.0000000        
G   1   1.00
      2.4229000              1.0000000        
G   1   1.00
      0.9281600              1.0000000        
****
H     0 
S   1   1.00
     33.8700000              1.000000        
S   1   1.00
      5.0950000              1.000000        
S   1   1.00
      1.1590000              1.000000        
S   1   1.00
      0.3258000              1.0000000        
S   1   1.00
      0.1027000              1.0000000        
S   1   1.00
      0.0252600              1.0000000        
P   1   1.00
      1.4070000              1.0000000        
P   1   1.00
      0.3880000              1.0000000        
P   1   1.00
      0.1020000              1.0000000        
D   1   1.00
      1.0570000              1.0000000        
D   1   1.00
      0.2470000              1.0000000        
****

