%MEM=80GB
%CPU=0-19
%RWF=/scratch/04843/aannabe/gaussian/
%Int=/scratch/04843/aannabe/gaussian/
%D2E=/scratch/04843/aannabe/gaussian/
%NoSave
%CHK=Cr


!Make sure DKHSO is turned off
#P ROCCSD(T)=(maxcyc=150, Full)/Gen 5d 7f SCF=(maxcycles=300, NoVarAcc, VShift=300) MaxDisk=100GB Pop=Regular Pseudo=Read Guess=Read IOp(5/15=2) 
!#P ROHF/Gen 5d 7f SCF=(maxcycles=300, VShift=300) MaxDisk=100GB Pop=Regular Pseudo=Read !Guess=Read IOp(5/15=2) 

Cr

0 7
Cr 0.0 0.0 0.0

Cr     0 
S   1   1.00
  59620.0500000              1.000       
S   1   1.00
  19450.7600000              1.000       
S   1   1.00
   7022.0560000              1.000       
S   1   1.00
   2738.7630000              1.000       
S   1   1.00
   1135.8140000              1.000       
S   1   1.00
    495.0923000              1.000       
S   1   1.00
    224.7487000              1.000       
S   1   1.00
    105.3836000              1.000       
S   1   1.00
     50.1935900              1.000       
S   1   1.00
     22.2495700              1.000       
S   1   1.00
     10.9826500              1.000       
S   1   1.00
      5.3836650              1.000       
S   1   1.00
      2.3436850              1.000       
S   1   1.00
      1.1052020              1.000       
S   1   1.00
      0.4878480              1.000       
S   1   1.00
      0.0895990              1.000       
S   1   1.00
      0.0334230              1.0000000        
S   1   1.00
      4.8281000              1.0000000        
S   1   1.00
      1.1499000              1.0000000        
S   1   1.00
      0.0124700              1.0000000        
P   1   1.00
   3421.6760000              1.000       
P   1   1.00
   1111.3870000              1.000       
P   1   1.00
    425.1918000              1.000       
P   1   1.00
    180.2623000              1.000       
P   1   1.00
     82.0611700              1.000       
P   1   1.00
     39.2972600              1.000       
P   1   1.00
     19.4195900              1.000       
P   1   1.00
      9.8288990              1.000       
P   1   1.00
      5.0168100              1.000       
P   1   1.00
      2.4870910              1.000       
P   1   1.00
      1.1987800              1.000       
P   1   1.00
      0.5586950              1.000       
P   1   1.00
      0.2093660              1.000       
P   1   1.00
      0.0847220              1.000       
P   1   1.00
      0.0332780              1.0000000        
P   1   1.00
      5.2718000              1.0000000        
P   1   1.00
      1.2083000              1.0000000        
P   1   1.00
      0.0130700              1.0000000        
D   1   1.00
     89.4745000              1.000       
D   1   1.00
     26.3368000              1.000       
D   1   1.00
      9.5342900              1.000       
D   1   1.00
      3.8211800              1.000       
D   1   1.00
      1.5716900              1.000       
D   1   1.00
      0.6264220              1.000       
D   1   1.00
      0.2330550              1.000       
D   1   1.00
      0.0763030              1.0000000        
D   1   1.00
      3.4093000              1.0000000        
D   1   1.00
      1.5874000              1.0000000        
D   1   1.00
      0.0249800              1.0000000        
F   1   1.00
      4.3629000              1.0000000        
F   1   1.00
      1.5864000              1.0000000        
F   1   1.00
      0.5231000              1.0000000        
F   1   1.00
      0.1724900              1.0000000        
G   1   1.00
      4.0406000              1.0000000        
G   1   1.00
      1.4199000              1.0000000        
G   1   1.00
      0.4989600              1.0000000        
****

Cr 0
QMC 2 10

4
1 17.28765815496623  14.000
3 17.37865770888056  242.02721416952722
2 16.88192512677669 -132.23096912825460
2 5.216963474753990 -0.3890546405623200

2
2 16.67302763904429  219.47992344274493
2 7.607917982035100  28.224894936356320

2
2 16.28367882250889  140.07443385561996
2 7.504228036508310  19.638227383075830

