%MEM=80GB
%CPU=0-15
%RWF=/scratch/04843/aannabe/gaussian/
%Int=/scratch/04843/aannabe/gaussian/
%D2E=/scratch/04843/aannabe/gaussian/
%NoSave
%CHK=Mn


!Make sure DKHSO is turned off
#P ROCCSD(T)=(maxcyc=150, Full)/Gen 5d 7f SCF=(maxcycles=300, NoVarAcc, VShift=200) MaxDisk=100GB Pop=Regular Pseudo=Read Guess=Read !IOp(5/15=2) 
!#P ROHF/Gen 5d 7f SCF=(maxcycles=300, VShift=300) MaxDisk=100GB Pop=Regular Pseudo=Read !Guess=Read IOp(5/15=2) 

Mn

0 6
Mn 0.0 0.0 0.0

Mn     0 
S   1   1.00
 3960805.0000000             1.000       
S   1   1.00
 593115.5000000              1.000       
S   1   1.00
 134976.8000000              1.000       
S   1   1.00
  38230.6700000              1.000       
S   1   1.00
  12471.5400000              1.000       
S   1   1.00
   4501.7430000              1.000       
S   1   1.00
   1755.2120000              1.000       
S   1   1.00
    727.3039000              1.000       
S   1   1.00
    316.3678000              1.000       
S   1   1.00
    143.0098000              1.000       
S   1   1.00
     66.2180500              1.000       
S   1   1.00
     29.9189600              1.000       
S   1   1.00
     14.3031800              1.000       
S   1   1.00
      6.8394510              1.000       
S   1   1.00
      3.0123740              1.000       
S   1   1.00
      1.4188080              1.000       
S   1   1.00
      0.6236240              1.000       
S   1   1.00
      0.1340980              1.000       
S   1   1.00
      0.0655480              1.000       
S   1   1.00
      0.0295840              1.0000000        
S   1   1.00
      4.1714000              1.0000000        
S   1   1.00
      1.0701000              1.0000000        
S   1   1.00
      0.0133500              1.0000000        
P   1   1.00
  16205.8600000              1.000       
P   1   1.00
   3836.2740000              1.000       
P   1   1.00
   1246.0480000              1.000       
P   1   1.00
    476.7535000              1.000       
P   1   1.00
    202.1895000              1.000       
P   1   1.00
     92.0948700              1.000       
P   1   1.00
     44.1472000              1.000       
P   1   1.00
     21.8546800              1.000       
P   1   1.00
     11.0859600              1.000       
P   1   1.00
      5.6741080              1.000       
P   1   1.00
      2.8231700              1.000       
P   1   1.00
      1.3686210              1.000       
P   1   1.00
      0.6444310              1.000       
P   1   1.00
      0.2483460              1.000       
P   1   1.00
      0.0971750              1.000       
P   1   1.00
      0.0365650              1.0000000        
P   1   1.00
      6.0568000              1.0000000        
P   1   1.00
      1.3911000              1.0000000        
P   1   1.00
      0.0137600              1.0000000        
D   1   1.00
    101.9040000              1.000       
D   1   1.00
     30.0337000              1.000       
D   1   1.00
     10.9238000              1.000       
D   1   1.00
      4.3974000              1.000       
D   1   1.00
      1.8159500              1.000       
D   1   1.00
      0.7257310              1.000       
D   1   1.00
      0.2699610              1.000       
D   1   1.00
      0.0877600              1.0000000        
D   1   1.00
      3.9511000              1.0000000        
D   1   1.00
      1.8488000              1.0000000        
D   1   1.00
      0.0285300              1.0000000        
F   1   1.00
      5.1541000              1.0000000        
F   1   1.00
      1.9044000              1.0000000        
F   1   1.00
      0.6438000              1.0000000        
F   1   1.00
      0.2176400              1.0000000        
G   1   1.00
      4.7163000              1.0000000        
G   1   1.00
      1.7022000              1.0000000        
G   1   1.00
      0.6143600              1.0000000        
****

Mn 0
ECP10MDF 3 10
F-Komponente
1
2 1.000000 0.000000
S-F
2
2 18.520000 226.430902
2 8.373000 30.359072
P-F
2
2 18.920000 142.154705
2 8.017000 21.536509
D-F
2
2 22.720000 -22.568119
2 7.640000 -1.205810

