%MEM=80GB
%CPU=0-15
%RWF=/scratch/04843/aannabe/gaussian/
%Int=/scratch/04843/aannabe/gaussian/
%D2E=/scratch/04843/aannabe/gaussian/
%NoSave
%CHK=Cr


!Make sure DKHSO is turned off
#P ROCCSD(T)=(maxcyc=150, Full)/Gen 5d 7f SCF=(maxcycles=300, NoVarAcc, VShift=300) MaxDisk=100GB Pop=Regular Pseudo=Read Guess=Read IOp(5/15=2) 
!#P ROHF/Gen 5d 7f SCF=(maxcycles=300, VShift=300) MaxDisk=100GB Pop=Regular Pseudo=Read !Guess=Read IOp(5/15=2) 

Cr

0 7
Cr 0.0 0.0 0.0

Cr     0 
S   1   1.00
 6177194.0000000             1.000       
S   1   1.00
 924929.5000000              1.000       
S   1   1.00
 210486.5000000              1.000       
S   1   1.00
  59620.0500000              1.000       
S   1   1.00
  19450.7600000              1.000       
S   1   1.00
   7022.0560000              1.000       
S   1   1.00
   2738.7630000              1.000       
S   1   1.00
   1135.8140000              1.000       
S   1   1.00
    495.0923000              1.000       
S   1   1.00
    224.7487000              1.000       
S   1   1.00
    105.3836000              1.000       
S   1   1.00
     50.1935900              1.000       
S   1   1.00
     22.2495700              1.000       
S   1   1.00
     10.9826500              1.000       
S   1   1.00
      5.3836650              1.000       
S   1   1.00
      2.3436850              1.000       
S   1   1.00
      1.1052020              1.000       
S   1   1.00
      0.4878480              1.000       
S   1   1.00
      0.0895990              1.000       
S   1   1.00
      0.0334230              1.0000000        
S   1   1.00
      4.8281000              1.0000000        
S   1   1.00
      1.1499000              1.0000000        
S   1   1.00
      0.0124700              1.0000000        
P   1   1.00
  14454.2000000              1.000       
P   1   1.00
   3421.6760000              1.000       
P   1   1.00
   1111.3870000              1.000       
P   1   1.00
    425.1918000              1.000       
P   1   1.00
    180.2623000              1.000       
P   1   1.00
     82.0611700              1.000       
P   1   1.00
     39.2972600              1.000       
P   1   1.00
     19.4195900              1.000       
P   1   1.00
      9.8288990              1.000       
P   1   1.00
      5.0168100              1.000       
P   1   1.00
      2.4870910              1.000       
P   1   1.00
      1.1987800              1.000       
P   1   1.00
      0.5586950              1.000       
P   1   1.00
      0.2093660              1.000       
P   1   1.00
      0.0847220              1.000       
P   1   1.00
      0.0332780              1.0000000        
P   1   1.00
      5.2718000              1.0000000        
P   1   1.00
      1.2083000              1.0000000        
P   1   1.00
      0.0130700              1.0000000        
D   1   1.00
     89.4745000              1.000       
D   1   1.00
     26.3368000              1.000       
D   1   1.00
      9.5342900              1.000       
D   1   1.00
      3.8211800              1.000       
D   1   1.00
      1.5716900              1.000       
D   1   1.00
      0.6264220              1.000       
D   1   1.00
      0.2330550              1.000       
D   1   1.00
      0.0763030              1.0000000        
D   1   1.00
      3.4093000              1.0000000        
D   1   1.00
      1.5874000              1.0000000        
D   1   1.00
      0.0249800              1.0000000        
F   1   1.00
      4.3629000              1.0000000        
F   1   1.00
      1.5864000              1.0000000        
F   1   1.00
      0.5231000              1.0000000        
F   1   1.00
      0.1724900              1.0000000        
G   1   1.00
      4.0406000              1.0000000        
G   1   1.00
      1.4199000              1.0000000        
G   1   1.00
      0.4989600              1.0000000        
****

Cr 0
QMC 2 10

4
1 1.89609085908367e+01  14.000
3 1.92659568665971e+01  265.45272027171376
2 1.80129079304042e+01 -1.28170001542577e+02
2 4.57575060091176e+00 -7.81837636917706e-01

2
2 1.65089848870824e+01  2.20089999878123e+02
2 7.60081924609393e+00  2.80999923974372e+01

2
2 1.63590231972637e+01  1.43729998444777e+02
2 7.80197639918647e+00  2.05769491785582e+01

