%mem=80GB
%cpu=0-31
%chk=tz.chk
%rwf=/scratch/04843/gwang18/zno/

#P ROCCSD(T)=(MaxCyc=150, Full)/Gen SCF=(maxcycle=400, vshift=200) Pseudo=Read Integral(NoXCTest) Pop=Regular MaxDisk=500GB !Guess=Read IOp(5/15=2)

ZnO

0 1
Zn 0.0 0.0 0.0
O 0.0 0.0 1.7

Zn     0 
S   1   1.00
 5820021.0000000             1.000000    
S   1   1.00
 871523.4000000              1.000000    
S   1   1.00
 198335.0000000              1.000000    
S   1   1.00
  56176.3100000              1.000000    
S   1   1.00
  18325.8200000              1.000000    
S   1   1.00
   6614.9550000              1.000000    
S   1   1.00
   2579.1990000              1.000000    
S   1   1.00
   1068.8490000              1.000000    
S   1   1.00
    465.1045000              1.000000    
S   1   1.00
    210.4130000              1.000000    
S   1   1.00
     97.6162900              1.000000    
S   1   1.00
     44.3802000              1.000000    
S   1   1.00
     21.4230800              1.000000    
S   1   1.00
     10.3089100              1.000000    
S   1   1.00
      4.5536450              1.000000    
S   1   1.00
      2.1328210              1.000000    
S   1   1.00
      0.9296970              1.000000    
S   1   1.00
      0.1921470              1.000000    
S   1   1.00
      0.0875950              1.000000    
S   1   1.00
      0.0377020              1.0000000        
S   1   1.00
      7.0381000              1.0000000        
S   1   1.00
      1.8099000              1.0000000        
S   1   1.00
      0.0162300              1.0000000        
P   1   1.00
  24411.9800000              1.000000       
P   1   1.00
   5778.5180000              1.000000       
P   1   1.00
   1876.8620000              1.000000       
P   1   1.00
    718.2361000              1.000000       
P   1   1.00
    304.8327000              1.000000       
P   1   1.00
    139.0453000              1.000000       
P   1   1.00
     66.8041700              1.000000       
P   1   1.00
     33.2069900              1.000000       
P   1   1.00
     16.9281600              1.000000       
P   1   1.00
      8.6962290              1.000000       
P   1   1.00
      4.3505100              1.000000       
P   1   1.00
      2.1165230              1.000000       
P   1   1.00
      0.9953870              1.000000       
P   1   1.00
      0.3781120              1.000000       
P   1   1.00
      0.1345790              1.000000       
P   1   1.00
      0.0462820              1.0000000        
P   1   1.00
     10.1501000              1.0000000        
P   1   1.00
      2.3451000              1.0000000        
P   1   1.00
      0.0159200              1.0000000        
D   1   1.00
    205.6177000              1.000000       
D   1   1.00
     61.4498100              1.000000       
D   1   1.00
     23.0568900              1.000000       
D   1   1.00
      9.5777390              1.000000       
D   1   1.00
      4.1337340              1.000000       
D   1   1.00
      1.7475180              1.000000       
D   1   1.00
      0.6995600              1.000000       
D   1   1.00
      0.2516080              1.0000000        
D   1   1.00
      7.7440000              1.0000000        
D   1   1.00
      3.9663000              1.0000000        
D   1   1.00
      0.0904900              1.0000000        
F   1   1.00
     10.3270000              1.0000000        
F   1   1.00
      4.0202000              1.0000000        
F   1   1.00
      1.4851000              1.0000000        
F   1   1.00
      0.5486100              1.0000000        
G   1   1.00
      9.2538000              1.0000000        
G   1   1.00
      4.1144000              1.0000000        
G   1   1.00
      1.8293300              1.0000000        
****
O     0 
S   1   1.00
  15330.0000000              1.000000       
S   1   1.00
   2299.0000000              1.000000       
S   1   1.00
    522.4000000              1.000000       
S   1   1.00
    147.3000000              1.000000       
S   1   1.00
     47.5500000              1.000000       
S   1   1.00
     16.7600000              1.000000       
S   1   1.00
      6.2070000              1.000000       
S   1   1.00
      0.6882000              1.000000       
S   1   1.00
      1.7520000              1.0000000        
S   1   1.00
      0.2384000              1.0000000        
S   1   1.00
      7.8450000              1.0000000        
S   1   1.00
     21.0320000              1.0000000        
S   1   1.00
      0.0737600              1.0000000        
P   1   1.00
     34.4600000              1.000000        
P   1   1.00
      7.7490000              1.000000        
P   1   1.00
      2.2800000              1.000000        
P   1   1.00
      0.7156000              1.0000000        
P   1   1.00
      0.2140000              1.0000000        
P   1   1.00
     15.1590000              1.0000000        
P   1   1.00
     57.4370000              1.0000000        
P   1   1.00
      0.0597400              1.0000000        
D   1   1.00
      2.3140000              1.0000000        
D   1   1.00
      0.6450000              1.0000000        
D   1   1.00
     15.8580000              1.0000000        
D   1   1.00
      0.2140000              1.0000000        
F   1   1.00
      1.4280000              1.0000000        
F   1   1.00
      0.5000000              1.0000000        
****

Zn 0
GM 2 10

4
1 35.80797616175546  20.0
3 34.53646083704226  716.1595232351092000
2 28.62830178269908  -204.68393323548855
2 7.96239682559958  0.76026614461740

2
2 14.63498691533719  95.87640437388212
2 35.02141356672601  431.70804302700361

2
2 14.57429304153574  74.01270048941292
2 42.22979234994646  313.57770563939351
O 0
QMC 1 2

3
1 12.3099743608243  6.00000000000000
3 14.7696229283522  73.8598461649458
2 13.7141954216007 -47.8760050413118

1
2 13.6551200129796  85.8640652580159

