%mem=80GB
%cpu=0-31
%chk=ScO
%rwf=/scratch/04843/aannabe/gaussian/

!Make sure DKHSO is turned off
#P ROCCSD(T)=(maxcyc=150, Full, SaveAmplitudes, ReadAmplitudes)/Gen 5d 7f SCF=(maxcycles=300) Integral(NoXCTest) MaxDisk=500GB Pop=Regular Pseudo=Read Guess=Read IOp(5/15=2) 

ScO

0 2
Sc 0.0 0.0 0.0
O  0.0 0.0 1.30

Sc     0 
S   1   1.00
 2715278.0000000             1.000       
S   1   1.00
 406598.4000000              1.000       
S   1   1.00
  92530.0400000              1.000       
S   1   1.00
  26207.9200000              1.000       
S   1   1.00
   8549.4290000              1.000       
S   1   1.00
   3085.9750000              1.000       
S   1   1.00
   1203.1720000              1.000       
S   1   1.00
    498.4869000              1.000       
S   1   1.00
    216.7360000              1.000       
S   1   1.00
     97.8747600              1.000       
S   1   1.00
     45.2043300              1.000       
S   1   1.00
     20.2118700              1.000       
S   1   1.00
      9.5747510              1.000       
S   1   1.00
      4.5403460              1.000       
S   1   1.00
      1.9956870              1.000       
S   1   1.00
      0.9422150              1.000       
S   1   1.00
      0.4178450              1.000       
S   1   1.00
      0.0957610              1.000       
S   1   1.00
      0.0513510              1.000       
S   1   1.00
      0.0238780              1.0000000        
S   1   1.00
      2.6472000              1.0000000        
S   1   1.00
      0.6217000              1.0000000        
S   1   1.00
      0.0111000              1.0000000        
P   1   1.00
  10592.1900000              1.000       
P   1   1.00
   2507.5330000              1.000       
P   1   1.00
    814.4571000              1.000       
P   1   1.00
    311.5195000              1.000       
P   1   1.00
    131.9617000              1.000       
P   1   1.00
     59.9871800              1.000       
P   1   1.00
     28.6625000              1.000       
P   1   1.00
     14.1085100              1.000       
P   1   1.00
      7.1037060              1.000       
P   1   1.00
      3.6092000              1.000       
P   1   1.00
      1.7760700              1.000       
P   1   1.00
      0.8547600              1.000       
P   1   1.00
      0.4022390              1.000       
P   1   1.00
      0.1546800              1.000       
P   1   1.00
      0.0648880              1.000       
P   1   1.00
      0.0263010              1.0000000        
P   1   1.00
      3.4418000              1.0000000        
P   1   1.00
      0.8084000              1.0000000        
P   1   1.00
      0.0106600              1.0000000        
D   1   1.00
     50.6542000              1.000       
D   1   1.00
     14.7325000              1.000       
D   1   1.00
      5.1804600              1.000       
D   1   1.00
      2.0195900              1.000       
D   1   1.00
      0.7992190              1.000       
D   1   1.00
      0.3053160              1.000       
D   1   1.00
      0.1104440              1.000       
D   1   1.00
      0.0370650              1.0000000        
D   1   1.00
      1.8520000              1.0000000        
D   1   1.00
      0.7875000              1.0000000        
D   1   1.00
      0.0124400              1.0000000        
F   1   1.00
      2.1048000              1.0000000        
F   1   1.00
      0.6587000              1.0000000        
F   1   1.00
      0.1636000              1.0000000        
F   1   1.00
      0.0406300              1.0000000        
G   1   1.00
      1.7850000              1.0000000        
G   1   1.00
      0.4112000              1.0000000        
G   1   1.00
      0.0947300              1.0000000        
****
O     0 
S   1   1.00
  15330.0000000              1.000       
S   1   1.00
   2299.0000000              1.000       
S   1   1.00
    522.4000000              1.000       
S   1   1.00
    147.3000000              1.000       
S   1   1.00
     47.5500000              1.000       
S   1   1.00
     16.7600000              1.000       
S   1   1.00
      6.2070000              1.000       
S   1   1.00
      0.6882000              1.000       
S   1   1.00
      1.7520000              1.0000000        
S   1   1.00
      0.2384000              1.0000000        
S   1   1.00
      7.8450000              1.0000000        
S   1   1.00
     21.0320000              1.0000000        
S   1   1.00
      0.0737600              1.0000000        
P   1   1.00
     34.4600000              1.000        
P   1   1.00
      7.7490000              1.000        
P   1   1.00
      2.2800000              1.000        
P   1   1.00
      0.7156000              1.0000000        
P   1   1.00
      0.2140000              1.0000000        
P   1   1.00
     15.1590000              1.0000000        
P   1   1.00
     57.4370000              1.0000000        
P   1   1.00
      0.0597400              1.0000000        
D   1   1.00
      2.3140000              1.0000000        
D   1   1.00
      0.6450000              1.0000000        
D   1   1.00
     15.8580000              1.0000000        
D   1   1.00
      0.2140000              1.0000000        
F   1   1.00
      1.4280000              1.0000000        
F   1   1.00
      0.5000000              1.0000000        
****

Sc 0
QMC 3 10

6
1    8.68432435      11.00000000 
2   12.96081047    1293.12711495 
2    3.42726018     -59.34807006 
2   13.92649869   -6626.33658022 
2   14.11355210    5365.41708240 
3    3.87834215      95.52756785 

6
2   14.11432286   -1492.86349923 
2    4.42835597    1499.37242000 
2    7.46045566    1088.20049735 
2   10.23533878   -1981.91696501 
2    4.52489587   -1710.45115474 
2   13.07885945    2625.43810581 

6
2    9.83997641   -2070.12504374 
2    7.25072068    5801.02991534 
2   11.81974746    1554.97375552 
2   14.07433272    -853.69420879 
2    7.08460322   -4878.01776292 
2   14.07166426     462.12967346 

6
2   11.29849449    -570.27953430 
2    5.72119848    -549.43824610 
2    6.53234086    1672.92599442 
2    8.11431019   -2704.80905453 
2    9.95728280    4666.19773963 
2   10.24029445   -2524.96335631 
O 0
QMC 2 2

6
1   10.27717748        6.00000000 
2   15.99566749     1232.50197768 
2   10.46901775     -696.47008301 
2   14.63848010    -2654.22657081 
2   12.57591181     2101.67732548 
3    7.77739102       61.66306486 

6
2   12.39426073  -656683.37638839 
2   12.38126171   657858.57667068 
2    8.57671033      511.50098405 
2    9.89256508    -2579.54665641 
2   28.05641604      -57.68129584 
2   17.24753607      970.30940152 

6
2   14.78918914  -363027.24258186 
2   14.82014018   361852.52314043 
2   22.89622221    -1300.20069256 
2    8.51331893     -181.96869573 
2   11.48609758     2194.87589959 
2   27.22017524      451.19906206 

