%MEM=80GB
%CPU=0-15
%RWF=/scratch/04843/aannabe/gaussian/
%Int=/scratch/04843/aannabe/gaussian/
%D2E=/scratch/04843/aannabe/gaussian/
%NoSave
%CHK=CrO

!Make sure DKHSO is turned off
#P ROCCSD(T)=(maxcyc=150, Full, SaveAmplitudes, ReadAmplitudes)/Gen 5d 7f SCF=(maxcycles=300) Integral(NoXCTest) MaxDisk=500GB Pop=Regular Pseudo=Read Guess=Read IOp(5/15=2) 

CrO

0 5
Cr 0.0 0.0 0.0
O  0.0 0.0 1.70

Cr     0 
S   1   1.00
 6177194.0000000             1.000       
S   1   1.00
 924929.5000000              1.000       
S   1   1.00
 210486.5000000              1.000       
S   1   1.00
  59620.0500000              1.000       
S   1   1.00
  19450.7600000              1.000       
S   1   1.00
   7022.0560000              1.000       
S   1   1.00
   2738.7630000              1.000       
S   1   1.00
   1135.8140000              1.000       
S   1   1.00
    495.0923000              1.000       
S   1   1.00
    224.7487000              1.000       
S   1   1.00
    105.3836000              1.000       
S   1   1.00
     50.1935900              1.000       
S   1   1.00
     22.2495700              1.000       
S   1   1.00
     10.9826500              1.000       
S   1   1.00
      5.3836650              1.000       
S   1   1.00
      2.3436850              1.000       
S   1   1.00
      1.1052020              1.000       
S   1   1.00
      0.4878480              1.000       
S   1   1.00
      0.0895990              1.000       
S   1   1.00
      0.0334230              1.0000000        
S   1   1.00
      4.8281000              1.0000000        
S   1   1.00
      1.1499000              1.0000000        
S   1   1.00
      0.0124700              1.0000000        
P   1   1.00
  14454.2000000              1.000       
P   1   1.00
   3421.6760000              1.000       
P   1   1.00
   1111.3870000              1.000       
P   1   1.00
    425.1918000              1.000       
P   1   1.00
    180.2623000              1.000       
P   1   1.00
     82.0611700              1.000       
P   1   1.00
     39.2972600              1.000       
P   1   1.00
     19.4195900              1.000       
P   1   1.00
      9.8288990              1.000       
P   1   1.00
      5.0168100              1.000       
P   1   1.00
      2.4870910              1.000       
P   1   1.00
      1.1987800              1.000       
P   1   1.00
      0.5586950              1.000       
P   1   1.00
      0.2093660              1.000       
P   1   1.00
      0.0847220              1.000       
P   1   1.00
      0.0332780              1.0000000        
P   1   1.00
      5.2718000              1.0000000        
P   1   1.00
      1.2083000              1.0000000        
P   1   1.00
      0.0130700              1.0000000        
D   1   1.00
     89.4745000              1.000       
D   1   1.00
     26.3368000              1.000       
D   1   1.00
      9.5342900              1.000       
D   1   1.00
      3.8211800              1.000       
D   1   1.00
      1.5716900              1.000       
D   1   1.00
      0.6264220              1.000       
D   1   1.00
      0.2330550              1.000       
D   1   1.00
      0.0763030              1.0000000        
D   1   1.00
      3.4093000              1.0000000        
D   1   1.00
      1.5874000              1.0000000        
D   1   1.00
      0.0249800              1.0000000        
F   1   1.00
      4.3629000              1.0000000        
F   1   1.00
      1.5864000              1.0000000        
F   1   1.00
      0.5231000              1.0000000        
F   1   1.00
      0.1724900              1.0000000        
G   1   1.00
      4.0406000              1.0000000        
G   1   1.00
      1.4199000              1.0000000        
G   1   1.00
      0.4989600              1.0000000        
****
O     0 
S   1   1.00
  15330.0000000              1.000       
S   1   1.00
   2299.0000000              1.000       
S   1   1.00
    522.4000000              1.000       
S   1   1.00
    147.3000000              1.000       
S   1   1.00
     47.5500000              1.000       
S   1   1.00
     16.7600000              1.000       
S   1   1.00
      6.2070000              1.000       
S   1   1.00
      0.6882000              1.000       
S   1   1.00
      1.7520000              1.0000000        
S   1   1.00
      0.2384000              1.0000000        
S   1   1.00
      7.8450000              1.0000000        
S   1   1.00
     21.0320000              1.0000000        
S   1   1.00
      0.0737600              1.0000000        
P   1   1.00
     34.4600000              1.000        
P   1   1.00
      7.7490000              1.000        
P   1   1.00
      2.2800000              1.000        
P   1   1.00
      0.7156000              1.0000000        
P   1   1.00
      0.2140000              1.0000000        
P   1   1.00
     15.1590000              1.0000000        
P   1   1.00
     57.4370000              1.0000000        
P   1   1.00
      0.0597400              1.0000000        
D   1   1.00
      2.3140000              1.0000000        
D   1   1.00
      0.6450000              1.0000000        
D   1   1.00
     15.8580000              1.0000000        
D   1   1.00
      0.2140000              1.0000000        
F   1   1.00
      1.4280000              1.0000000        
F   1   1.00
      0.5000000              1.0000000        
****

Cr 0
QMC_SC 2 10
COMMENT LINE
3
1 2.94337662 14.00000000
3 3.40750349 41.20727267
2 3.33587110 -55.51413840
COMMENT LINE
1
2 9.14231779 103.26274052
COMMENT LINE
1
2 7.21220771 45.80124572
O 0
QMC 1 2
COMMENT LINE
3
1 9.29793903 6.00000000
3 8.86492204 55.78763416
2 8.62925665 -38.81978498
COMMENT LINE
1
2 8.71924452 38.41914135

