%mem=80GB
%cpu=0-31
%chk=ScO
%rwf=/scratch/04843/aannabe/gaussian/

!Make sure DKHSO is turned off
#P ROCCSD(T)=(maxcyc=150, Full, SaveAmplitudes, ReadAmplitudes)/Gen 5d 7f SCF=(maxcycles=300) Integral(NoXCTest) MaxDisk=500GB Pop=Regular Pseudo=Read Guess=Read !IOp(5/15=2) 

ScO

0 2
Sc 0.0 0.0 0.0
O  0.0 0.0 1.50

Sc     0 
S   1   1.00
 8417909.0000000             1.000       
S   1   1.00
 1260312.0000000             1.000       
S   1   1.00
 286798.4000000              1.000       
S   1   1.00
  81234.6900000              1.000       
S   1   1.00
  26503.1100000              1.000       
S   1   1.00
   9568.7010000              1.000       
S   1   1.00
   3732.4970000              1.000       
S   1   1.00
   1548.4220000              1.000       
S   1   1.00
    675.5420000              1.000       
S   1   1.00
    307.2522000              1.000       
S   1   1.00
    144.6672000              1.000       
S   1   1.00
     70.0438700              1.000       
S   1   1.00
     34.3225000              1.000       
S   1   1.00
     15.6122400              1.000       
S   1   1.00
      7.7437220              1.000       
S   1   1.00
      3.8442600              1.000       
S   1   1.00
      1.7197660              1.000       
S   1   1.00
      0.8325230              1.000       
S   1   1.00
      0.3855640              1.000       
S   1   1.00
      0.0967000              1.000       
S   1   1.00
      0.0477780              1.000       
S   1   1.00
      0.0223630              1.0000000        
S   1   1.00
      3.1672000              1.0000000        
S   1   1.00
      1.6879000              1.0000000        
S   1   1.00
      0.0104700              1.0000000        
P   1   1.00
  22640.9700000              1.000       
P   1   1.00
   5357.5450000              1.000       
P   1   1.00
   1740.3730000              1.000       
P   1   1.00
    666.6163000              1.000       
P   1   1.00
    283.6384000              1.000       
P   1   1.00
    129.7976000              1.000       
P   1   1.00
     62.6795600              1.000       
P   1   1.00
     31.5044100              1.000       
P   1   1.00
     16.2352500              1.000       
P   1   1.00
      8.5183240              1.000       
P   1   1.00
      4.5190050              1.000       
P   1   1.00
      2.3665910              1.000       
P   1   1.00
      1.2152350              1.000       
P   1   1.00
      0.6143480              1.000       
P   1   1.00
      0.3007450              1.000       
P   1   1.00
      0.1258340              1.000       
P   1   1.00
      0.0547190              1.000       
P   1   1.00
      0.0234880              1.0000000        
P   1   1.00
      4.0719000              1.0000000        
P   1   1.00
      0.9994000              1.0000000        
P   1   1.00
      0.0100800              1.0000000        
D   1   1.00
    148.0280000              1.000       
D   1   1.00
     43.8528000              1.000       
D   1   1.00
     16.6646000              1.000       
D   1   1.00
      6.9789300              1.000       
D   1   1.00
      3.1236900              1.000       
D   1   1.00
      1.4468700              1.000       
D   1   1.00
      0.6674070              1.000       
D   1   1.00
      0.3016330              1.000       
D   1   1.00
      0.1326740              1.000       
D   1   1.00
      0.0567390              1.000       
D   1   1.00
      0.0231750              1.0000000        
D   1   1.00
      2.1282000              1.0000000        
D   1   1.00
      0.9691000              1.0000000        
D   1   1.00
      0.0094700              1.0000000        
F   1   1.00
      2.7590000              1.0000000        
F   1   1.00
      1.0490000              1.0000000        
F   1   1.00
      0.3989000              1.0000000        
F   1   1.00
      0.1106000              1.0000000        
F   1   1.00
      0.0306700              1.0000000        
G   1   1.00
      2.4852000              1.0000000        
G   1   1.00
      0.9067000              1.0000000        
G   1   1.00
      0.2530000              1.0000000        
G   1   1.00
      0.0706000              1.0000000        
H   1   1.00
      2.0405000              1.0000000        
H   1   1.00
      0.4934000              1.0000000        
H   1   1.00
      0.1193100              1.0000000        
****
O     0 
S   1   1.00
  61420.0000000              1.000       
S   1   1.00
   9199.0000000              1.000       
S   1   1.00
   2091.0000000              1.000       
S   1   1.00
    590.9000000              1.000       
S   1   1.00
    192.3000000              1.000       
S   1   1.00
     69.3200000              1.000       
S   1   1.00
     26.9700000              1.000       
S   1   1.00
     11.1000000              1.000       
S   1   1.00
      4.6820000              1.000       
S   1   1.00
      1.4280000              1.0000000        
S   1   1.00
      0.5547000              1.0000000        
S   1   1.00
      0.2067000              1.0000000        
S   1   1.00
     12.9740000              1.0000000        
S   1   1.00
     34.9000000              1.0000000        
S   1   1.00
     93.8810000              1.0000000        
S   1   1.00
      0.0695900              1.0000000        
P   1   1.00
     63.4200000              1.000        
P   1   1.00
     14.6600000              1.000        
P   1   1.00
      4.4590000              1.000        
P   1   1.00
      1.5310000              1.0000000        
P   1   1.00
      0.5302000              1.0000000        
P   1   1.00
      0.1750000              1.0000000        
P   1   1.00
     14.4750000              1.0000000        
P   1   1.00
     42.7300000              1.0000000        
P   1   1.00
    126.1400000              1.0000000        
P   1   1.00
      0.0534800              1.0000000        
D   1   1.00
      3.7750000              1.0000000        
D   1   1.00
      1.3000000              1.0000000        
D   1   1.00
      0.4440000              1.0000000        
D   1   1.00
     14.9270000              1.0000000        
D   1   1.00
     57.5440000              1.0000000        
D   1   1.00
      0.1540000              1.0000000        
F   1   1.00
      2.6660000              1.0000000        
F   1   1.00
      0.8590000              1.0000000        
F   1   1.00
     26.4830000              1.0000000        
F   1   1.00
      0.3240000              1.0000000        
G   1   1.00
      1.8460000              1.0000000        
G   1   1.00
      0.7140000              1.0000000        
****

Sc 0
QMC 3 10

6
1    8.68432435      11.00000000 
2   12.96081047    1293.12711495 
2    3.42726018     -59.34807006 
2   13.92649869   -6626.33658022 
2   14.11355210    5365.41708240 
3    3.87834215      95.52756785 

6
2   14.11432286   -1492.86349923 
2    4.42835597    1499.37242000 
2    7.46045566    1088.20049735 
2   10.23533878   -1981.91696501 
2    4.52489587   -1710.45115474 
2   13.07885945    2625.43810581 

6
2    9.83997641   -2070.12504374 
2    7.25072068    5801.02991534 
2   11.81974746    1554.97375552 
2   14.07433272    -853.69420879 
2    7.08460322   -4878.01776292 
2   14.07166426     462.12967346 

6
2   11.29849449    -570.27953430 
2    5.72119848    -549.43824610 
2    6.53234086    1672.92599442 
2    8.11431019   -2704.80905453 
2    9.95728280    4666.19773963 
2   10.24029445   -2524.96335631 
O 0
QMC 2 2

6
1   10.27717748        6.00000000 
2   15.99566749     1232.50197768 
2   10.46901775     -696.47008301 
2   14.63848010    -2654.22657081 
2   12.57591181     2101.67732548 
3    7.77739102       61.66306486 

6
2   12.39426073  -656683.37638839 
2   12.38126171   657858.57667068 
2    8.57671033      511.50098405 
2    9.89256508    -2579.54665641 
2   28.05641604      -57.68129584 
2   17.24753607      970.30940152 

6
2   14.78918914  -363027.24258186 
2   14.82014018   361852.52314043 
2   22.89622221    -1300.20069256 
2    8.51331893     -181.96869573 
2   11.48609758     2194.87589959 
2   27.22017524      451.19906206 

