%mem=160GB
%cpu=0-31
%chk=5z.chk
%rwf=/scratch/04843/gwang18/zno/

#P ROCCSD(T)=(MaxCyc=150, Window=(7,0))/Gen SCF=(maxcycle=400) Integral(DKHSO, NoXCTest) Pop=Regular MaxDisk=500GB Guess=Read IOp(5/15=2)

ZnO

0 1
Zn 0.0 0.0 0.0
O 0.0 0.0 1.3

Zn     0 
S   1   1.00
      1.87413E+08            1.000000    
S   1   1.00
      3.35127E+07            1.000000    
S   1   1.00
      7.50475E+06            1.000000    
S   1   1.00
      2.01787E+06            1.000000    
S   1   1.00
 628578.0000000              1.000000    
S   1   1.00
 220163.0000000              1.000000    
S   1   1.00
  84595.2000000              1.000000    
S   1   1.00
  34955.5000000              1.000000    
S   1   1.00
  15290.3000000              1.000000    
S   1   1.00
   6994.9300000              1.000000    
S   1   1.00
   3316.5900000              1.000000    
S   1   1.00
   1619.2400000              1.000000    
S   1   1.00
    810.3430000              1.000000    
S   1   1.00
    414.3930000              1.000000    
S   1   1.00
    216.0580000              1.000000    
S   1   1.00
    114.6350000              1.000000    
S   1   1.00
     61.7623000              1.000000    
S   1   1.00
     33.6924000              1.000000    
S   1   1.00
     18.5315000              1.000000    
S   1   1.00
     10.2144000              1.000000    
S   1   1.00
      5.5942800              1.000000    
S   1   1.00
      3.0096800              1.000000    
S   1   1.00
      1.5668400              1.000000    
S   1   1.00
      0.7814370              1.000000    
S   1   1.00
      0.2581180              1.000000    
S   1   1.00
      0.1385560              1.000000    
S   1   1.00
      0.0661710              1.000000    
S   1   1.00
      0.0309860              1.0000000        
S   1   1.00
     10.4508000              1.0000000        
S   1   1.00
      3.9198000              1.0000000        
S   1   1.00
      0.0145100              1.0000000        
P   1   1.00
 110349.0000000              1.000000       
P   1   1.00
  26971.3000000              1.000000       
P   1   1.00
   8560.0700000              1.000000       
P   1   1.00
   3248.8000000              1.000000       
P   1   1.00
   1389.4100000              1.000000       
P   1   1.00
    643.0430000              1.000000       
P   1   1.00
    314.0050000              1.000000       
P   1   1.00
    159.4890000              1.000000       
P   1   1.00
     83.6662000              1.000000       
P   1   1.00
     45.1574000              1.000000       
P   1   1.00
     24.9630000              1.000000       
P   1   1.00
     14.0043000              1.000000       
P   1   1.00
      7.8326700              1.000000       
P   1   1.00
      4.2841000              1.000000       
P   1   1.00
      2.2890100              1.000000       
P   1   1.00
      1.1943600              1.000000       
P   1   1.00
      0.5942580              1.000000       
P   1   1.00
      0.2269140              1.000000       
P   1   1.00
      0.0901790              1.000000       
P   1   1.00
      0.0357180              1.0000000        
P   1   1.00
     14.8971000              1.0000000        
P   1   1.00
      4.7100000              1.0000000        
P   1   1.00
      0.0141500              1.0000000        
D   1   1.00
    854.1223000              1.000000       
D   1   1.00
    257.9496000              1.000000       
D   1   1.00
    100.2319000              1.000000       
D   1   1.00
     44.1762100              1.000000       
D   1   1.00
     20.7847600              1.000000       
D   1   1.00
     10.2275600              1.000000       
D   1   1.00
      5.1512410              1.000000       
D   1   1.00
      2.5908470              1.000000       
D   1   1.00
      1.2858010              1.000000       
D   1   1.00
      0.6253440              1.000000       
D   1   1.00
      0.2939430              1.000000       
D   1   1.00
      0.1289970              1.0000000        
D   1   1.00
     11.5936000              1.0000000        
D   1   1.00
      7.2491000              1.0000000        
D   1   1.00
      0.0566100              1.0000000        
F   1   1.00
     17.8628000              1.0000000        
F   1   1.00
      8.0392000              1.0000000        
F   1   1.00
      3.6180000              1.0000000        
F   1   1.00
      1.6283000              1.0000000        
F   1   1.00
      0.5721000              1.0000000        
F   1   1.00
      0.2010100              1.0000000        
G   1   1.00
     12.5406000              1.0000000        
G   1   1.00
      6.2306000              1.0000000        
G   1   1.00
      3.0956000              1.0000000        
G   1   1.00
      1.1951000              1.0000000        
G   1   1.00
      0.4613900              1.0000000        
H   1   1.00
     11.2261000              1.0000000        
H   1   1.00
      5.5189000              1.0000000        
H   1   1.00
      2.4250000              1.0000000        
H   1   1.00
      1.0655400              1.0000000        
I   1   1.00
     11.0188000              1.0000000        
I   1   1.00
      5.5487000              1.0000000        
I   1   1.00
      2.7941400              1.0000000        
****
O     0 
S   1   1.00
164200.0000000       1.000000
S   1   1.00
24590.0000000        1.000000
S   1   1.00
5592.0000000         1.000000
S   1   1.00
1582.0000000         1.000000
S   1   1.00
516.1000000          1.000000
S   1   1.00
73.9300000           1.000000
S   1   1.00
31.2200000           1.000000
S   1   1.00
13.8100000           1.000000
S   1   1.00
6.2560000            1.000000
S   1   1.00
2.7760000            1.0000000
S   1   1.00
1.1380000            1.0000000
S   1   1.00
0.4600000            1.0000000
S   1   1.00
0.1829000            1.0000000
S   1   1.00
15.6450000           1.0000000
S   1   1.00
35.8740000           1.0000000
S   1   1.00
82.2590000           1.0000000
S   1   1.00
188.6200000          1.0000000
S   1   1.00
0.0655000            1.0000000
P   1   1.00
195.5000000          1.000000
P   1   1.00
46.1600000           1.000000
P   1   1.00
14.5800000           1.000000
P   1   1.00
5.2960000            1.000000
P   1   1.00
2.0940000            1.0000000
P   1   1.00
0.8471000            1.0000000
P   1   1.00
0.3368000            1.0000000
P   1   1.00
0.1285000            1.0000000
P   1   1.00
14.0490000           1.0000000
P   1   1.00
35.4460000           1.0000000
P   1   1.00
89.4290000           1.0000000
P   1   1.00
225.6300000          1.0000000
P   1   1.00
0.0446000            1.0000000
D   1   1.00
5.8790000            1.0000000
D   1   1.00
2.3070000            1.0000000
D   1   1.00
0.9050000            1.0000000
D   1   1.00
0.3550000            1.0000000
D   1   1.00
16.7030000           1.0000000
D   1   1.00
47.3200000           1.0000000
D   1   1.00
134.0560000          1.0000000
D   1   1.00
0.1310000            1.0000000
F   1   1.00
4.0160000            1.0000000
F   1   1.00
1.5540000            1.0000000
F   1   1.00
0.6010000            1.0000000
F   1   1.00
17.3540000           1.0000000
F   1   1.00
65.5460000           1.0000000
F   1   1.00
0.2370000            1.0000000
G   1   1.00
3.3500000            1.0000000
G   1   1.00
1.1890000            1.0000000
G   1   1.00
48.5780000           1.0000000
G   1   1.00
0.5170000            1.0000000
H   1   1.00
2.3190000            1.0000000
H   1   1.00
1.0240000            1.0000000
****

