%mem=80GB
%cpu=0-31
%chk=tz.chk
%rwf=/scratch/04843/gwang18/znh/

#P ROCCSD(T)=(MaxCyc=150, Full)/Gen SCF=(maxcycle=400, vshift=200) Pseudo=Read Integral(NoXCTest) Pop=Regular MaxDisk=500GB Guess=Read IOp(5/15=2)

ZnH

0 2
Zn 0.0 0.0 0.0
H 0.0 0.0 1.4

Zn     0 
S   1   1.00
 5820021.0000000             1.000000    
S   1   1.00
 871523.4000000              1.000000    
S   1   1.00
 198335.0000000              1.000000    
S   1   1.00
  56176.3100000              1.000000    
S   1   1.00
  18325.8200000              1.000000    
S   1   1.00
   6614.9550000              1.000000    
S   1   1.00
   2579.1990000              1.000000    
S   1   1.00
   1068.8490000              1.000000    
S   1   1.00
    465.1045000              1.000000    
S   1   1.00
    210.4130000              1.000000    
S   1   1.00
     97.6162900              1.000000    
S   1   1.00
     44.3802000              1.000000    
S   1   1.00
     21.4230800              1.000000    
S   1   1.00
     10.3089100              1.000000    
S   1   1.00
      4.5536450              1.000000    
S   1   1.00
      2.1328210              1.000000    
S   1   1.00
      0.9296970              1.000000    
S   1   1.00
      0.1921470              1.000000    
S   1   1.00
      0.0875950              1.000000    
S   1   1.00
      0.0377020              1.0000000        
S   1   1.00
      7.0381000              1.0000000        
S   1   1.00
      1.8099000              1.0000000        
S   1   1.00
      0.0162300              1.0000000        
P   1   1.00
  24411.9800000              1.000000       
P   1   1.00
   5778.5180000              1.000000       
P   1   1.00
   1876.8620000              1.000000       
P   1   1.00
    718.2361000              1.000000       
P   1   1.00
    304.8327000              1.000000       
P   1   1.00
    139.0453000              1.000000       
P   1   1.00
     66.8041700              1.000000       
P   1   1.00
     33.2069900              1.000000       
P   1   1.00
     16.9281600              1.000000       
P   1   1.00
      8.6962290              1.000000       
P   1   1.00
      4.3505100              1.000000       
P   1   1.00
      2.1165230              1.000000       
P   1   1.00
      0.9953870              1.000000       
P   1   1.00
      0.3781120              1.000000       
P   1   1.00
      0.1345790              1.000000       
P   1   1.00
      0.0462820              1.0000000        
P   1   1.00
     10.1501000              1.0000000        
P   1   1.00
      2.3451000              1.0000000        
P   1   1.00
      0.0159200              1.0000000        
D   1   1.00
    205.6177000              1.000000       
D   1   1.00
     61.4498100              1.000000       
D   1   1.00
     23.0568900              1.000000       
D   1   1.00
      9.5777390              1.000000       
D   1   1.00
      4.1337340              1.000000       
D   1   1.00
      1.7475180              1.000000       
D   1   1.00
      0.6995600              1.000000       
D   1   1.00
      0.2516080              1.0000000        
D   1   1.00
      7.7440000              1.0000000        
D   1   1.00
      3.9663000              1.0000000        
D   1   1.00
      0.0904900              1.0000000        
F   1   1.00
     10.3270000              1.0000000        
F   1   1.00
      4.0202000              1.0000000        
F   1   1.00
      1.4851000              1.0000000        
F   1   1.00
      0.5486100              1.0000000        
G   1   1.00
      9.2538000              1.0000000        
G   1   1.00
      4.1144000              1.0000000        
G   1   1.00
      1.8293300              1.0000000        
****
H     0 
S   1   1.00
     33.8700000              1.000000        
S   1   1.00
      5.0950000              1.000000        
S   1   1.00
      1.1590000              1.000000        
S   1   1.00
      0.3258000              1.0000000        
S   1   1.00
      0.1027000              1.0000000        
S   1   1.00
      0.0252600              1.0000000        
P   1   1.00
      1.4070000              1.0000000        
P   1   1.00
      0.3880000              1.0000000        
P   1   1.00
      0.1020000              1.0000000        
D   1   1.00
      1.0570000              1.0000000        
D   1   1.00
      0.2470000              1.0000000        
****

Zn 0
ECP10MDF 4 10
G-Komponente
1
2 1.000000 0.000000
S-G
2
2 34.174001 399.986399
2 14.456371 85.489750
P-G
4
2 39.888683 92.381077
2 39.655017 184.771176
2 15.290546 23.002541
2 14.903524 46.057427
D-G
4
2 43.708296 -13.690734
2 43.698536 -20.543980
2 15.150718 -1.316154
2 15.282441 -1.838715
F-G
2
2 8.160014 -0.370360
2 12.228422 -1.062943
H 0
QMC 1 0

3
2   21.77696655044365      -10.85192405303825
1   21.24359508259891        1.00000000000000
3   21.24359508259891       21.24359508259891

1
2    1.               0.

