%mem=80GB
%cpu=0-31
%chk=ScO
%rwf=/scratch/04843/aannabe/gaussian/

!Make sure DKHSO is turned off
#P ROCCSD(T)=(maxcyc=150, Full, SaveAmplitudes, ReadAmplitudes)/Gen 5d 7f SCF=(maxcycles=300) Integral(NoXCTest) MaxDisk=500GB Pop=Regular Pseudo=Read Guess=Read IOp(5/15=2) 

ScO

0 2
Sc 0.0 0.0 0.0
O  0.0 0.0 1.10

Sc     0 
S   1   1.00
 2715278.0000000             1.000       
S   1   1.00
 406598.4000000              1.000       
S   1   1.00
  92530.0400000              1.000       
S   1   1.00
  26207.9200000              1.000       
S   1   1.00
   8549.4290000              1.000       
S   1   1.00
   3085.9750000              1.000       
S   1   1.00
   1203.1720000              1.000       
S   1   1.00
    498.4869000              1.000       
S   1   1.00
    216.7360000              1.000       
S   1   1.00
     97.8747600              1.000       
S   1   1.00
     45.2043300              1.000       
S   1   1.00
     20.2118700              1.000       
S   1   1.00
      9.5747510              1.000       
S   1   1.00
      4.5403460              1.000       
S   1   1.00
      1.9956870              1.000       
S   1   1.00
      0.9422150              1.000       
S   1   1.00
      0.4178450              1.000       
S   1   1.00
      0.0957610              1.000       
S   1   1.00
      0.0513510              1.000       
S   1   1.00
      0.0238780              1.0000000        
S   1   1.00
      2.6472000              1.0000000        
S   1   1.00
      0.6217000              1.0000000        
S   1   1.00
      0.0111000              1.0000000        
P   1   1.00
  10592.1900000              1.000       
P   1   1.00
   2507.5330000              1.000       
P   1   1.00
    814.4571000              1.000       
P   1   1.00
    311.5195000              1.000       
P   1   1.00
    131.9617000              1.000       
P   1   1.00
     59.9871800              1.000       
P   1   1.00
     28.6625000              1.000       
P   1   1.00
     14.1085100              1.000       
P   1   1.00
      7.1037060              1.000       
P   1   1.00
      3.6092000              1.000       
P   1   1.00
      1.7760700              1.000       
P   1   1.00
      0.8547600              1.000       
P   1   1.00
      0.4022390              1.000       
P   1   1.00
      0.1546800              1.000       
P   1   1.00
      0.0648880              1.000       
P   1   1.00
      0.0263010              1.0000000        
P   1   1.00
      3.4418000              1.0000000        
P   1   1.00
      0.8084000              1.0000000        
P   1   1.00
      0.0106600              1.0000000        
D   1   1.00
     50.6542000              1.000       
D   1   1.00
     14.7325000              1.000       
D   1   1.00
      5.1804600              1.000       
D   1   1.00
      2.0195900              1.000       
D   1   1.00
      0.7992190              1.000       
D   1   1.00
      0.3053160              1.000       
D   1   1.00
      0.1104440              1.000       
D   1   1.00
      0.0370650              1.0000000        
D   1   1.00
      1.8520000              1.0000000        
D   1   1.00
      0.7875000              1.0000000        
D   1   1.00
      0.0124400              1.0000000        
F   1   1.00
      2.1048000              1.0000000        
F   1   1.00
      0.6587000              1.0000000        
F   1   1.00
      0.1636000              1.0000000        
F   1   1.00
      0.0406300              1.0000000        
G   1   1.00
      1.7850000              1.0000000        
G   1   1.00
      0.4112000              1.0000000        
G   1   1.00
      0.0947300              1.0000000        
****
O     0 
S   1   1.00
  15330.0000000              1.000       
S   1   1.00
   2299.0000000              1.000       
S   1   1.00
    522.4000000              1.000       
S   1   1.00
    147.3000000              1.000       
S   1   1.00
     47.5500000              1.000       
S   1   1.00
     16.7600000              1.000       
S   1   1.00
      6.2070000              1.000       
S   1   1.00
      0.6882000              1.000       
S   1   1.00
      1.7520000              1.0000000        
S   1   1.00
      0.2384000              1.0000000        
S   1   1.00
      7.8450000              1.0000000        
S   1   1.00
     21.0320000              1.0000000        
S   1   1.00
      0.0737600              1.0000000        
P   1   1.00
     34.4600000              1.000        
P   1   1.00
      7.7490000              1.000        
P   1   1.00
      2.2800000              1.000        
P   1   1.00
      0.7156000              1.0000000        
P   1   1.00
      0.2140000              1.0000000        
P   1   1.00
     15.1590000              1.0000000        
P   1   1.00
     57.4370000              1.0000000        
P   1   1.00
      0.0597400              1.0000000        
D   1   1.00
      2.3140000              1.0000000        
D   1   1.00
      0.6450000              1.0000000        
D   1   1.00
     15.8580000              1.0000000        
D   1   1.00
      0.2140000              1.0000000        
F   1   1.00
      1.4280000              1.0000000        
F   1   1.00
      0.5000000              1.0000000        
****

Sc 0
QMC 2 10

4
1 16.0239438834255  11.000
3 14.0864740368760  176.263382717680
2 11.9398512180529 -83.6814959989029
2 3.69440111537148  0.43282764732009

2
2 11.4946654139250  153.965301756312
2 5.01031394189373  14.9367565765582

2
2 11.4512673043638  97.2172569045336
2 4.76798446255521  10.8170401843697
O 0
QMC 1 2

3
1 12.30997 6.00000
3 14.76962 73.85984
2 13.71419 -47.87600

1
2 13.65512 85.86406

