%mem=80GB
%nproc=32

#P ROCCSD(T)=(maxcyc=100, Full)/Gen SCF=(maxcycle=400, symm) Pseudo=Read Integral(NoXCTest) Pop=Regular MaxDisk=500GB Guess=Permute IOp(5/15=2)

FeH

0 4
Fe 0.0 0.0 0.0
H 0.0 0.0 1.1

Fe     0 
S   1   1.00
      1.497690E+08           1.0000000    
S   1   1.00
      2.672250E+07           1.0000000    
S   1   1.00
      5.959000E+06           1.0000000    
S   1   1.00
      1.593610E+06           1.0000000    
S   1   1.00
      4.934640E+05           1.0000000    
S   1   1.00
      1.717900E+05           1.0000000    
S   1   1.00
      6.562090E+04           1.0000000    
S   1   1.00
      2.696560E+04           1.0000000    
S   1   1.00
      1.173530E+04           1.0000000    
S   1   1.00
      5.343430E+03           1.0000000    
S   1   1.00
      2.522500E+03           1.0000000    
S   1   1.00
      1.226430E+03           1.0000000    
S   1   1.00
      6.112690E+02           1.0000000    
S   1   1.00
      3.113080E+02           1.0000000    
S   1   1.00
      1.616240E+02           1.0000000    
S   1   1.00
      8.537670E+01           1.0000000    
S   1   1.00
      4.579110E+01           1.0000000    
S   1   1.00
      2.486770E+01           1.0000000    
S   1   1.00
      1.362020E+01           1.0000000    
S   1   1.00
      7.481060E+00           1.0000000    
S   1   1.00
      4.088170E+00           1.0000000    
S   1   1.00
      2.199050E+00           1.0000000    
S   1   1.00
      1.148150E+00           1.0000000    
S   1   1.00
      5.772650E-01           1.0000000    
S   1   1.00
      1.976350E-01           1.0000000    
S   1   1.00
      1.089860E-01           1.0000000    
S   1   1.00
      5.321600E-02           1.0000000    
S   1   1.00
      2.557100E-02           1.0000000        
S   1   1.00
      6.622400E+00           1.0000000        
S   1   1.00
      2.214000E+00           1.0000000        
S   1   1.00
      0.0122900              1.0000000        
P   1   1.00
      8.694730E+04           1.0000000    
P   1   1.00
      2.125400E+04           1.0000000    
P   1   1.00
      6.741140E+03           1.0000000    
P   1   1.00
      2.557160E+03           1.0000000    
P   1   1.00
      1.093510E+03           1.0000000    
P   1   1.00
      5.061610E+02           1.0000000    
P   1   1.00
      2.471390E+02           1.0000000    
P   1   1.00
      1.254150E+02           1.0000000    
P   1   1.00
      6.565120E+01           1.0000000    
P   1   1.00
      3.530790E+01           1.0000000    
P   1   1.00
      1.942600E+01           1.0000000    
P   1   1.00
      1.084380E+01           1.0000000    
P   1   1.00
      6.043590E+00           1.0000000    
P   1   1.00
      3.302450E+00           1.0000000    
P   1   1.00
      1.763890E+00           1.0000000    
P   1   1.00
      9.213860E-01           1.0000000    
P   1   1.00
      4.603730E-01           1.0000000    
P   1   1.00
      1.837720E-01           1.0000000    
P   1   1.00
      7.583300E-02           1.0000000    
P   1   1.00
      3.109900E-02           1.0000000        
P   1   1.00
      1.001280E+01           1.0000000        
P   1   1.00
      3.186900E+00           1.0000000        
P   1   1.00
      0.0127500              1.0000000        
D   1   1.00
      5.184160E+02           1.0000000    
D   1   1.00
      1.528190E+02           1.0000000    
D   1   1.00
      5.858690E+01           1.0000000    
D   1   1.00
      2.545640E+01           1.0000000    
D   1   1.00
      1.178680E+01           1.0000000    
D   1   1.00
      5.718610E+00           1.0000000    
D   1   1.00
      2.824170E+00           1.0000000    
D   1   1.00
      1.379850E+00           1.0000000    
D   1   1.00
      6.561600E-01           1.0000000    
D   1   1.00
      2.996090E-01           1.0000000    
D   1   1.00
      1.293610E-01           1.0000000    
D   1   1.00
      5.115500E-02           1.0000000        
D   1   1.00
      7.098200E+00           1.0000000        
D   1   1.00
      4.277200E+00           1.0000000        
D   1   1.00
      0.0202300              1.0000000        
F   1   1.00
      1.104710E+01           1.0000000        
F   1   1.00
      4.854100E+00           1.0000000        
F   1   1.00
      2.132900E+00           1.0000000        
F   1   1.00
      9.372000E-01           1.0000000        
F   1   1.00
      3.141000E-01           1.0000000        
F   1   1.00
      0.1052700              1.0000000        
G   1   1.00
      7.547500E+00           1.0000000        
G   1   1.00
      3.673700E+00           1.0000000        
G   1   1.00
      1.788100E+00           1.0000000        
G   1   1.00
      6.564000E-01           1.0000000        
G   1   1.00
      0.2409600              1.0000000        
H   1   1.00
      6.926300E+00           1.0000000        
H   1   1.00
      3.252700E+00           1.0000000        
H   1   1.00
      1.296400E+00           1.0000000        
H   1   1.00
      0.5166900              1.0000000        
I   1   1.00
      7.056900E+00           1.0000000        
I   1   1.00
      1.3776500              1.0000000    
****
H     0 
S   1   1.00
    402.0000000              1.000000        
S   1   1.00
     60.2400000              1.000000        
S   1   1.00
     13.7300000              1.000000        
S   1   1.00
      3.9050000              1.000000        
S   1   1.00
      1.2830000              1.0000000        
S   1   1.00
      0.4655000              1.0000000        
S   1   1.00
      0.1811000              1.0000000        
S   1   1.00
      0.0727900              1.0000000        
S   1   1.00
      0.0207000              1.0000000        
P   1   1.00
      4.5160000              1.0000000        
P   1   1.00
      1.7120000              1.0000000        
P   1   1.00
      0.6490000              1.0000000        
P   1   1.00
      0.2460000              1.0000000        
P   1   1.00
      0.0744000              1.0000000        
D   1   1.00
      2.9500000              1.0000000        
D   1   1.00
      1.2060000              1.0000000        
D   1   1.00
      0.4930000              1.0000000        
D   1   1.00
      0.1560000              1.0000000        
F   1   1.00
      2.5060000              1.0000000        
F   1   1.00
      0.8750000              1.0000000        
F   1   1.00
      0.2740000              1.0000000        
G   1   1.00
      2.3580000              1.0000000        
G   1   1.00
      0.5430000              1.0000000        
****

Fe 0
ECEPP 3 10          

6
1 16.90683491      16.00000000
2 18.40258134   26847.81569895
2  6.30300831    -133.54888707
2 18.42848726  -26765.40492320
2 18.43432023       1.00742417
3  7.01300654     270.50935856

6
2  9.62463353   20308.89993480
2  9.12709550  -17595.21707731
2  7.54163840    1884.69012383
2 12.70900949   -4483.50209856
2  8.14863339   -1094.38597968
2 16.27611739    1032.95376659

6
2 11.36514719    -905.00711112
2 14.56762424   34640.93582590
2 15.05861359  -42299.94223895
2 17.41337089   10633.68808757
2 18.37467520   -5844.19723669
2 17.04734437    3803.80414779

6
2 10.13935738  -11031.18647055
2 13.45796076   16711.37502047
2 10.97387824   37989.95033676
2 11.92919033  -41782.92514683
2 17.71230120    3812.58339812
2 17.32108913   -5718.00854971
H 0
QMC 1 0

3
2   21.77696655044365      -10.85192405303825
1   21.24359508259891        1.00000000000000
3   21.24359508259891       21.24359508259891

1
2    1.               0.

1-5 10 9 8 6 7


