%MEM=160GB
%CPU=0-15
%RWF=/scratch/04843/aannabe/gaussian/
%Int=/scratch/04843/aannabe/gaussian/
%D2E=/scratch/04843/aannabe/gaussian/
%NoSave
%CHK=Cr


!Make sure DKHSO is turned on
#P ROCCSD(T)=(maxcyc=150, Full)/Gen 5d 7f SCF=(maxcycles=300, NoVarAcc, VShift=300) Integral(NoXCTest, DKHSO) MaxDisk=100GB Pop=Regular IOp(5/15=2) !Guess=Read 
!#P ROHF/Gen 5d 7f SCF=(maxcycles=300, NoVarAcc, VShift=300) Integral(NoXCTest, DKHSO) MaxDisk=100GB Pop=Regular IOp(5/15=2) !Guess=Read 

Cr

0 7
Cr 0.0 0.0 0.0

Cr     0 
S   1   1.00
      1.35540E+08            1.000    
S   1   1.00
      2.42404E+07            1.000    
S   1   1.00
      5.41227E+06            1.000    
S   1   1.00
      1.44792E+06            1.000    
S   1   1.00
 448199.0000000              1.000    
S   1   1.00
 155899.0000000              1.000    
S   1   1.00
  59479.6000000              1.000    
S   1   1.00
  24408.1000000              1.000    
S   1   1.00
  10607.0000000              1.000    
S   1   1.00
   4823.0800000              1.000    
S   1   1.00
   2274.0800000              1.000    
S   1   1.00
   1104.5400000              1.000    
S   1   1.00
    550.0990000              1.000    
S   1   1.00
    280.0100000              1.000    
S   1   1.00
    145.3300000              1.000    
S   1   1.00
     76.7551000              1.000    
S   1   1.00
     41.1594000              1.000    
S   1   1.00
     22.3445000              1.000    
S   1   1.00
     12.2293000              1.000    
S   1   1.00
      6.7077700              1.000    
S   1   1.00
      3.6569400              1.000    
S   1   1.00
      1.9597800              1.000    
S   1   1.00
      1.0175800              1.000    
S   1   1.00
      0.5129130              1.000    
S   1   1.00
      0.1947980              1.000    
S   1   1.00
      0.1109690              1.000    
S   1   1.00
      0.0521230              1.000    
S   1   1.00
      0.0244890              1.0000000        
S   1   1.00
      5.2776000              1.0000000        
S   1   1.00
      1.7542000              1.0000000        
S   1   1.00
      0.0115100              1.0000000        
P   1   1.00
  72029.6000000              1.000       
P   1   1.00
  17890.9000000              1.000       
P   1   1.00
   5678.2800000              1.000       
P   1   1.00
   2138.7500000              1.000       
P   1   1.00
    905.8550000              1.000       
P   1   1.00
    415.6450000              1.000       
P   1   1.00
    201.6950000              1.000       
P   1   1.00
    102.0400000              1.000       
P   1   1.00
     53.3955000              1.000       
P   1   1.00
     28.7570000              1.000       
P   1   1.00
     15.8536000              1.000       
P   1   1.00
      8.8638500              1.000       
P   1   1.00
      4.9433400              1.000       
P   1   1.00
      2.6973200              1.000       
P   1   1.00
      1.4364300              1.000       
P   1   1.00
      0.7485180              1.000       
P   1   1.00
      0.3733100              1.000       
P   1   1.00
      0.1577460              1.000       
P   1   1.00
      0.0674450              1.000       
P   1   1.00
      0.0285490              1.0000000        
P   1   1.00
      7.7063000              1.0000000        
P   1   1.00
      2.2690000              1.0000000        
P   1   1.00
      0.0120800              1.0000000        
D   1   1.00
    408.6230000              1.000       
D   1   1.00
    120.7610000              1.000       
D   1   1.00
     46.4460000              1.000       
D   1   1.00
     20.2390000              1.000       
D   1   1.00
      9.3638100              1.000       
D   1   1.00
      4.5309400              1.000       
D   1   1.00
      2.2314000              1.000       
D   1   1.00
      1.0877600              1.000       
D   1   1.00
      0.5173840              1.000       
D   1   1.00
      0.2371640              1.000       
D   1   1.00
      0.1033080              1.000       
D   1   1.00
      0.0414480              1.0000000        
D   1   1.00
      5.1967000              1.0000000        
D   1   1.00
      3.1194000              1.0000000        
D   1   1.00
      0.0166300              1.0000000        
F   1   1.00
      8.1276000              1.0000000        
F   1   1.00
      3.5260000              1.0000000        
F   1   1.00
      1.5297000              1.0000000        
F   1   1.00
      0.6636000              1.0000000        
F   1   1.00
      0.2158000              1.0000000        
F   1   1.00
      0.0701800              1.0000000        
G   1   1.00
      5.5422000              1.0000000        
G   1   1.00
      2.6311000              1.0000000        
G   1   1.00
      1.2491000              1.0000000        
G   1   1.00
      0.4265000              1.0000000        
G   1   1.00
      0.1456300              1.0000000        
H   1   1.00
      5.1778000              1.0000000        
H   1   1.00
      2.3419000              1.0000000        
H   1   1.00
      0.8661000              1.0000000        
H   1   1.00
      0.3203100              1.0000000        
I   1   1.00
      5.1719000              1.0000000        
I   1   1.00
      2.0805000              1.0000000        
I   1   1.00
      0.8369200              1.0000000        
****


