%mem=80GB
%cpu=0-31
%chk=tz.chk
%rwf=/scratch/04843/gwang18/cuh/

#P ROCCSD(T)=(MaxCyc=150, FrzINGC)/Gen SCF=(maxcycle=400, vshift=200) Integral(DKHSO, NoXCTest) Pop=Regular MaxDisk=500GB Guess=Read IOp(5/15=2)

CuH

0 1
Cu 0.0 0.0 0.0
H 0.0 0.0 1.1

Cu     0 
S   1   1.00
 5430321.0000000             1.000000    
S   1   1.00
 813166.5000000              1.000000    
S   1   1.00
 185054.4000000              1.000000    
S   1   1.00
  52414.6600000              1.000000    
S   1   1.00
  17098.6800000              1.000000    
S   1   1.00
   6171.9940000              1.000000    
S   1   1.00
   2406.4810000              1.000000    
S   1   1.00
    997.2584000              1.000000    
S   1   1.00
    433.9289000              1.000000    
S   1   1.00
    196.2869000              1.000000    
S   1   1.00
     91.0428000              1.000000    
S   1   1.00
     41.3842500              1.000000    
S   1   1.00
     19.9327800              1.000000    
S   1   1.00
      9.5818910              1.000000    
S   1   1.00
      4.2345160              1.000000    
S   1   1.00
      1.9858140              1.000000    
S   1   1.00
      0.8670830              1.000000    
S   1   1.00
      0.1813390              1.000000    
S   1   1.00
      0.0836570              1.000000    
S   1   1.00
      0.0362670              1.0000000        
S   1   1.00
      6.3233000              1.0000000        
S   1   1.00
      1.6459000              1.0000000        
S   1   1.00
      0.0157200              1.0000000        
P   1   1.00
  22760.5700000              1.000000       
P   1   1.00
   5387.6790000              1.000000       
P   1   1.00
   1749.9450000              1.000000       
P   1   1.00
    669.6653000              1.000000       
P   1   1.00
    284.1948000              1.000000       
P   1   1.00
    129.6077000              1.000000       
P   1   1.00
     62.2541500              1.000000       
P   1   1.00
     30.9296400              1.000000       
P   1   1.00
     15.7582700              1.000000       
P   1   1.00
      8.0942110              1.000000       
P   1   1.00
      4.0469210              1.000000       
P   1   1.00
      1.9678690              1.000000       
P   1   1.00
      0.9252950              1.000000       
P   1   1.00
      0.3529920              1.000000       
P   1   1.00
      0.1273070              1.000000       
P   1   1.00
      0.0443560              1.0000000        
P   1   1.00
      9.6845000              1.0000000        
P   1   1.00
      2.2065000              1.0000000        
P   1   1.00
      0.0154500              1.0000000        
D   1   1.00
    173.8970000              1.000000       
D   1   1.00
     51.8869000              1.000000       
D   1   1.00
     19.3419000              1.000000       
D   1   1.00
      7.9757200              1.000000       
D   1   1.00
      3.3982300              1.000000       
D   1   1.00
      1.4093200              1.000000       
D   1   1.00
      0.5488580              1.000000       
D   1   1.00
      0.1901990              1.0000000        
D   1   1.00
      6.9242000              1.0000000        
D   1   1.00
      3.3410000              1.0000000        
D   1   1.00
      0.0659100              1.0000000        
F   1   1.00
      9.2215000              1.0000000        
F   1   1.00
      3.5468000              1.0000000        
F   1   1.00
      1.2797000              1.0000000        
F   1   1.00
      0.4617200              1.0000000        
G   1   1.00
      8.3127000              1.0000000        
G   1   1.00
      3.4835000              1.0000000        
G   1   1.00
      1.4597900              1.0000000        
****
H     0 
S   1   1.00
     33.8700000              1.000000        
S   1   1.00
      5.0950000              1.000000        
S   1   1.00
      1.1590000              1.000000        
S   1   1.00
      0.3258000              1.0000000        
S   1   1.00
      0.1027000              1.0000000        
S   1   1.00
      0.0252600              1.0000000        
P   1   1.00
      1.4070000              1.0000000        
P   1   1.00
      0.3880000              1.0000000        
P   1   1.00
      0.1020000              1.0000000        
D   1   1.00
      1.0570000              1.0000000        
D   1   1.00
      0.2470000              1.0000000        
****

