%MEM=80GB
%CPU=0-15
%RWF=/scratch/04843/aannabe/gaussian/
%Int=/scratch/04843/aannabe/gaussian/
%D2E=/scratch/04843/aannabe/gaussian/
%NoSave
%CHK=Sc


!Make sure DKHSO is turned off
#P ROCCSD(T)=(maxcyc=150, Full)/Gen 5d 7f SCF=(maxcycles=300, NoVarAcc, VShift=200) MaxDisk=100GB Pop=Regular Pseudo=Read Guess=Read !IOp(5/15=2) 
!#P ROHF/Gen 5d 7f SCF=(maxcycles=300, VShift=300) MaxDisk=100GB Pop=Regular Pseudo=Read !Guess=Read IOp(5/15=2) 

Sc

0 2
Sc 0.0 0.0 0.0

Sc     0 
S   1   1.00
 2715278.0000000             1.000       
S   1   1.00
 406598.4000000              1.000       
S   1   1.00
  92530.0400000              1.000       
S   1   1.00
  26207.9200000              1.000       
S   1   1.00
   8549.4290000              1.000       
S   1   1.00
   3085.9750000              1.000       
S   1   1.00
   1203.1720000              1.000       
S   1   1.00
    498.4869000              1.000       
S   1   1.00
    216.7360000              1.000       
S   1   1.00
     97.8747600              1.000       
S   1   1.00
     45.2043300              1.000       
S   1   1.00
     20.2118700              1.000       
S   1   1.00
      9.5747510              1.000       
S   1   1.00
      4.5403460              1.000       
S   1   1.00
      1.9956870              1.000       
S   1   1.00
      0.9422150              1.000       
S   1   1.00
      0.4178450              1.000       
S   1   1.00
      0.0957610              1.000       
S   1   1.00
      0.0513510              1.000       
S   1   1.00
      0.0238780              1.0000000        
S   1   1.00
      2.6472000              1.0000000        
S   1   1.00
      0.6217000              1.0000000        
S   1   1.00
      0.0111000              1.0000000        
P   1   1.00
  10592.1900000              1.000       
P   1   1.00
   2507.5330000              1.000       
P   1   1.00
    814.4571000              1.000       
P   1   1.00
    311.5195000              1.000       
P   1   1.00
    131.9617000              1.000       
P   1   1.00
     59.9871800              1.000       
P   1   1.00
     28.6625000              1.000       
P   1   1.00
     14.1085100              1.000       
P   1   1.00
      7.1037060              1.000       
P   1   1.00
      3.6092000              1.000       
P   1   1.00
      1.7760700              1.000       
P   1   1.00
      0.8547600              1.000       
P   1   1.00
      0.4022390              1.000       
P   1   1.00
      0.1546800              1.000       
P   1   1.00
      0.0648880              1.000       
P   1   1.00
      0.0263010              1.0000000        
P   1   1.00
      3.4418000              1.0000000        
P   1   1.00
      0.8084000              1.0000000        
P   1   1.00
      0.0106600              1.0000000        
D   1   1.00
     50.6542000              1.000       
D   1   1.00
     14.7325000              1.000       
D   1   1.00
      5.1804600              1.000       
D   1   1.00
      2.0195900              1.000       
D   1   1.00
      0.7992190              1.000       
D   1   1.00
      0.3053160              1.000       
D   1   1.00
      0.1104440              1.000       
D   1   1.00
      0.0370650              1.0000000        
D   1   1.00
      1.8520000              1.0000000        
D   1   1.00
      0.7875000              1.0000000        
D   1   1.00
      0.0124400              1.0000000        
F   1   1.00
      2.1048000              1.0000000        
F   1   1.00
      0.6587000              1.0000000        
F   1   1.00
      0.1636000              1.0000000        
F   1   1.00
      0.0406300              1.0000000        
G   1   1.00
      1.7850000              1.0000000        
G   1   1.00
      0.4112000              1.0000000        
G   1   1.00
      0.0947300              1.0000000        
****

Sc 0
QMC 2 10

4
1 1.60262379332088e+01  11.000
3 1.40939197569422e+01  176.2886172652968
2 1.19374674984513e+01 -8.36821245553885e+01  
2 3.68893880132536e+00  4.37490596525161e-01

2
2 1.15032496929138e+01  1.53964435222689e+02  
2 5.02707377105469e+00  1.49368293104273e+01  

2
2 1.14476821399039e+01  9.72171393689335e+01
2 4.76304503796825e+00  1.08202946849417e+01

