%mem=80GB
%chk=qz.chk
%cpu=0-31

#P ROCCSD(T)=(MaxCyc=150, Full)/Gen SCF=(maxcycle=400) Pseudo=Read Integral(NoXCTest) Pop=Regular MaxDisk=500GB Guess=Read IOp(5/15=2)

Cu

0 2
Cu 0.0 0.0 0.0

Cu     0 
S   1   1.00
 16665490.0000000            1.000000    
S   1   1.00
 2495213.0000000             1.000000    
S   1   1.00
 567850.7000000              1.000000    
S   1   1.00
 160853.1000000              1.000000    
S   1   1.00
  52481.8600000              1.000000    
S   1   1.00
  18948.8500000              1.000000    
S   1   1.00
   7391.6550000              1.000000    
S   1   1.00
   3066.5170000              1.000000    
S   1   1.00
   1337.9940000              1.000000    
S   1   1.00
    608.7830000              1.000000    
S   1   1.00
    286.8980000              1.000000    
S   1   1.00
    139.1530000              1.000000    
S   1   1.00
     68.4945500              1.000000    
S   1   1.00
     31.6010800              1.000000    
S   1   1.00
     15.9915800              1.000000    
S   1   1.00
      8.0565100              1.000000    
S   1   1.00
      3.6903290              1.000000    
S   1   1.00
      1.7629020              1.000000    
S   1   1.00
      0.8012690              1.000000    
S   1   1.00
      0.1842430              1.000000    
S   1   1.00
      0.0817930              1.000000    
S   1   1.00
      0.0353030              1.0000000        
S   1   1.00
      7.2310000              1.0000000        
S   1   1.00
      1.9080000              1.0000000        
S   1   1.00
      0.0152400              1.0000000        
P   1   1.00
  48218.4100000              1.000000       
P   1   1.00
  11420.5500000              1.000000       
P   1   1.00
   3713.5690000              1.000000       
P   1   1.00
   1423.7620000              1.000000       
P   1   1.00
    606.6041000              1.000000       
P   1   1.00
    278.2564000              1.000000       
P   1   1.00
    134.8449000              1.000000       
P   1   1.00
     68.1225400              1.000000       
P   1   1.00
     35.4008800              1.000000       
P   1   1.00
     18.7902900              1.000000       
P   1   1.00
     10.0835600              1.000000       
P   1   1.00
      5.3461200              1.000000       
P   1   1.00
      2.7752280              1.000000       
P   1   1.00
      1.4075640              1.000000       
P   1   1.00
      0.6872130              1.000000       
P   1   1.00
      0.2468220              1.000000       
P   1   1.00
      0.0962200              1.000000       
P   1   1.00
      0.0370370              1.0000000        
P   1   1.00
     11.9218000              1.0000000        
P   1   1.00
      3.2325000              1.0000000        
P   1   1.00
      0.0142600              1.0000000        
D   1   1.00
    527.8860000              1.000000       
D   1   1.00
    158.7330000              1.000000       
D   1   1.00
     61.5556000              1.000000       
D   1   1.00
     26.8834000              1.000000       
D   1   1.00
     12.5175000              1.000000       
D   1   1.00
      6.0697700              1.000000       
D   1   1.00
      2.9583190              1.000000       
D   1   1.00
      1.4141220              1.000000       
D   1   1.00
      0.6533290              1.000000       
D   1   1.00
      0.2866920              1.000000       
D   1   1.00
      0.1150140              1.0000000        
D   1   1.00
      8.4804000              1.0000000        
D   1   1.00
      4.4553000              1.0000000        
D   1   1.00
      0.0461400              1.0000000        
F   1   1.00
     11.9463000              1.0000000        
F   1   1.00
      5.0345000              1.0000000        
F   1   1.00
      2.1217000              1.0000000        
F   1   1.00
      0.7391000              1.0000000        
F   1   1.00
      0.2574700              1.0000000        
G   1   1.00
      9.5934000              1.0000000        
G   1   1.00
      4.3083000              1.0000000        
G   1   1.00
      1.7760000              1.0000000        
G   1   1.00
      0.7321200              1.0000000        
H   1   1.00
      8.5704000              1.0000000        
H   1   1.00
      3.7909000              1.0000000        
H   1   1.00
      1.6768100              1.0000000        
****

Cu 0
GM 2 10

4
1 36.51687697306037  19.0
3 54.82201391345763  693.8206624881470300
2 32.48169588867644  -155.75952043829815
2 17.01471786235481  1.10887001964248

2
2 14.86702511371494  94.86836555301690
2 29.41780443655124  376.04038353769562

2
2 11.75708986756213  64.21861970005369
2 50.11914425181166  255.82988430082119

