%mem=80GB
%cpu=0-31
%chk=5z.chk
%rwf=/scratch/04843/gwang18/coo/

#P ROCCSD(T)=(MaxCyc=150, Full)/Gen SCF=(maxcycle=400) Pseudo=Read Integral(NoXCTest) Pop=Regular MaxDisk=500GB Guess=Read IOp(5/15=2)

CoO

0 4
Co 0.0 0.0 0.0
O 0.0 0.0 1.8

Co     0 
S   1   1.00
      1.61030E+08            1.000000    
S   1   1.00
      2.87558E+07            1.000000    
S   1   1.00
      6.42324E+06            1.000000    
S   1   1.00
      1.72120E+06            1.000000    
S   1   1.00
 533994.0000000              1.000000    
S   1   1.00
 186194.0000000              1.000000    
S   1   1.00
  71201.7000000              1.000000    
S   1   1.00
  29276.2000000              1.000000    
S   1   1.00
  12742.3000000              1.000000    
S   1   1.00
   5800.5100000              1.000000    
S   1   1.00
   2736.9600000              1.000000    
S   1   1.00
   1329.9900000              1.000000    
S   1   1.00
    662.6110000              1.000000    
S   1   1.00
    337.4150000              1.000000    
S   1   1.00
    175.2340000              1.000000    
S   1   1.00
     92.6434000              1.000000    
S   1   1.00
     49.7576000              1.000000    
S   1   1.00
     27.0728000              1.000000    
S   1   1.00
     14.8610000              1.000000    
S   1   1.00
      8.1812100              1.000000    
S   1   1.00
      4.4794100              1.000000    
S   1   1.00
      2.4119100              1.000000    
S   1   1.00
      1.2584400              1.000000    
S   1   1.00
      0.6312340              1.000000    
S   1   1.00
      0.2152970              1.000000    
S   1   1.00
      0.1185100              1.000000    
S   1   1.00
      0.0572090              1.000000    
S   1   1.00
      0.0271660              1.0000000        
S   1   1.00
      7.3346000              1.0000000        
S   1   1.00
      2.6036000              1.0000000        
S   1   1.00
      0.0129000              1.0000000        
P   1   1.00
  97512.6000000              1.000000       
P   1   1.00
  23815.1000000              1.000000       
P   1   1.00
   7540.4300000              1.000000       
P   1   1.00
   2854.0800000              1.000000       
P   1   1.00
   1217.6900000              1.000000       
P   1   1.00
    562.5150000              1.000000       
P   1   1.00
    274.2740000              1.000000       
P   1   1.00
    139.1140000              1.000000       
P   1   1.00
     72.8598000              1.000000       
P   1   1.00
     39.2448000              1.000000       
P   1   1.00
     21.6430000              1.000000       
P   1   1.00
     12.1149000              1.000000       
P   1   1.00
      6.7691200              1.000000       
P   1   1.00
      3.7052800              1.000000       
P   1   1.00
      1.9790100              1.000000       
P   1   1.00
      1.0312700              1.000000       
P   1   1.00
      0.5136090              1.000000       
P   1   1.00
      0.2044820              1.000000       
P   1   1.00
      0.0838700              1.000000       
P   1   1.00
      0.0341020              1.0000000        
P   1   1.00
     11.2264000              1.0000000        
P   1   1.00
      3.6309000              1.0000000        
P   1   1.00
      0.0138700              1.0000000        
D   1   1.00
    545.1100000              1.000000       
D   1   1.00
    160.5580000              1.000000       
D   1   1.00
     61.6223000              1.000000       
D   1   1.00
     26.8224000              1.000000       
D   1   1.00
     12.4583000              1.000000       
D   1   1.00
      6.0606600              1.000000       
D   1   1.00
      2.9951700              1.000000       
D   1   1.00
      1.4647770              1.000000       
D   1   1.00
      0.6982420              1.000000       
D   1   1.00
      0.3200570              1.000000       
D   1   1.00
      0.1388040              1.000000       
D   1   1.00
      0.0550170              1.0000000        
D   1   1.00
      8.0293000              1.0000000        
D   1   1.00
      4.9005000              1.0000000        
D   1   1.00
      0.0218100              1.0000000        
F   1   1.00
     12.5542000              1.0000000        
F   1   1.00
      5.5551000              1.0000000        
F   1   1.00
      2.4581000              1.0000000        
F   1   1.00
      1.0877000              1.0000000        
F   1   1.00
      0.3686000              1.0000000        
F   1   1.00
      0.1249100              1.0000000        
G   1   1.00
      8.7355000              1.0000000        
G   1   1.00
      4.2811000              1.0000000        
G   1   1.00
      2.0981000              1.0000000        
G   1   1.00
      0.7828000              1.0000000        
G   1   1.00
      0.2920600              1.0000000        
H   1   1.00
      7.8788000              1.0000000        
H   1   1.00
      3.7437000              1.0000000        
H   1   1.00
      1.5288000              1.0000000        
H   1   1.00
      0.6243100              1.0000000        
I   1   1.00
      8.0114000              1.0000000        
I   1   1.00
      3.6607000              1.0000000        
I   1   1.00
      1.6727100              1.0000000        
****
O     0 
S   1   1.00
164200.0000000       1.000000
S   1   1.00
24590.0000000        1.000000
S   1   1.00
5592.0000000         1.000000
S   1   1.00
1582.0000000         1.000000
S   1   1.00
516.1000000          1.000000
S   1   1.00
73.9300000           1.000000
S   1   1.00
31.2200000           1.000000
S   1   1.00
13.8100000           1.000000
S   1   1.00
6.2560000            1.000000
S   1   1.00
2.7760000            1.0000000
S   1   1.00
1.1380000            1.0000000
S   1   1.00
0.4600000            1.0000000
S   1   1.00
0.1829000            1.0000000
S   1   1.00
15.6450000           1.0000000
S   1   1.00
35.8740000           1.0000000
S   1   1.00
82.2590000           1.0000000
S   1   1.00
188.6200000          1.0000000
S   1   1.00
0.0655000            1.0000000
P   1   1.00
195.5000000          1.000000
P   1   1.00
46.1600000           1.000000
P   1   1.00
14.5800000           1.000000
P   1   1.00
5.2960000            1.000000
P   1   1.00
2.0940000            1.0000000
P   1   1.00
0.8471000            1.0000000
P   1   1.00
0.3368000            1.0000000
P   1   1.00
0.1285000            1.0000000
P   1   1.00
14.0490000           1.0000000
P   1   1.00
35.4460000           1.0000000
P   1   1.00
89.4290000           1.0000000
P   1   1.00
225.6300000          1.0000000
P   1   1.00
0.0446000            1.0000000
D   1   1.00
5.8790000            1.0000000
D   1   1.00
2.3070000            1.0000000
D   1   1.00
0.9050000            1.0000000
D   1   1.00
0.3550000            1.0000000
D   1   1.00
16.7030000           1.0000000
D   1   1.00
47.3200000           1.0000000
D   1   1.00
134.0560000          1.0000000
D   1   1.00
0.1310000            1.0000000
F   1   1.00
4.0160000            1.0000000
F   1   1.00
1.5540000            1.0000000
F   1   1.00
0.6010000            1.0000000
F   1   1.00
17.3540000           1.0000000
F   1   1.00
65.5460000           1.0000000
F   1   1.00
0.2370000            1.0000000
G   1   1.00
3.3500000            1.0000000
G   1   1.00
1.1890000            1.0000000
G   1   1.00
48.5780000           1.0000000
G   1   1.00
0.5170000            1.0000000
H   1   1.00
2.3190000            1.0000000
H   1   1.00
1.0240000            1.0000000
****

Co 0
GM 2 10

4
1 27.41132561274041  17.0
3 26.76075806161875  465.9925354165869700
2 20.48032022247462  -134.54809603014158
2 7.21322693163409   0.88774464607555

2
2 10.65613958088872  54.09267691380918
2 23.84293737028188  306.74716360116275

2
2 10.19977264347746  39.08918711290565
2 26.42655542083392  208.27588660556384
O 0
QMC 1 2

3
1 12.3099743608243  6.00000000000000
3 14.7696229283522  73.8598461649458
2 13.7141954216007 -47.8760050413118

1
2 13.6551200129796  85.8640652580159

