%MEM=80GB
%CPU=0-15
%RWF=/scratch/04843/aannabe/gaussian/
%Int=/scratch/04843/aannabe/gaussian/
%D2E=/scratch/04843/aannabe/gaussian/
%NoSave
%CHK=CrO

!Make sure DKHSO is turned off
#P ROCCSD(T)=(maxcyc=150, Full, SaveAmplitudes, ReadAmplitudes)/Gen 5d 7f SCF=(maxcycles=300) Integral(NoXCTest) MaxDisk=500GB Pop=Regular Pseudo=Read Guess=Read IOp(5/15=2) 

CrO

0 5
Cr 0.0 0.0 0.0
O  0.0 0.0 1.20

Cr     0 
S   1   1.00
 6177194.0000000             1.000       
S   1   1.00
 924929.5000000              1.000       
S   1   1.00
 210486.5000000              1.000       
S   1   1.00
  59620.0500000              1.000       
S   1   1.00
  19450.7600000              1.000       
S   1   1.00
   7022.0560000              1.000       
S   1   1.00
   2738.7630000              1.000       
S   1   1.00
   1135.8140000              1.000       
S   1   1.00
    495.0923000              1.000       
S   1   1.00
    224.7487000              1.000       
S   1   1.00
    105.3836000              1.000       
S   1   1.00
     50.1935900              1.000       
S   1   1.00
     22.2495700              1.000       
S   1   1.00
     10.9826500              1.000       
S   1   1.00
      5.3836650              1.000       
S   1   1.00
      2.3436850              1.000       
S   1   1.00
      1.1052020              1.000       
S   1   1.00
      0.4878480              1.000       
S   1   1.00
      0.0895990              1.000       
S   1   1.00
      0.0334230              1.0000000        
S   1   1.00
      4.8281000              1.0000000        
S   1   1.00
      1.1499000              1.0000000        
S   1   1.00
      0.0124700              1.0000000        
P   1   1.00
  14454.2000000              1.000       
P   1   1.00
   3421.6760000              1.000       
P   1   1.00
   1111.3870000              1.000       
P   1   1.00
    425.1918000              1.000       
P   1   1.00
    180.2623000              1.000       
P   1   1.00
     82.0611700              1.000       
P   1   1.00
     39.2972600              1.000       
P   1   1.00
     19.4195900              1.000       
P   1   1.00
      9.8288990              1.000       
P   1   1.00
      5.0168100              1.000       
P   1   1.00
      2.4870910              1.000       
P   1   1.00
      1.1987800              1.000       
P   1   1.00
      0.5586950              1.000       
P   1   1.00
      0.2093660              1.000       
P   1   1.00
      0.0847220              1.000       
P   1   1.00
      0.0332780              1.0000000        
P   1   1.00
      5.2718000              1.0000000        
P   1   1.00
      1.2083000              1.0000000        
P   1   1.00
      0.0130700              1.0000000        
D   1   1.00
     89.4745000              1.000       
D   1   1.00
     26.3368000              1.000       
D   1   1.00
      9.5342900              1.000       
D   1   1.00
      3.8211800              1.000       
D   1   1.00
      1.5716900              1.000       
D   1   1.00
      0.6264220              1.000       
D   1   1.00
      0.2330550              1.000       
D   1   1.00
      0.0763030              1.0000000        
D   1   1.00
      3.4093000              1.0000000        
D   1   1.00
      1.5874000              1.0000000        
D   1   1.00
      0.0249800              1.0000000        
F   1   1.00
      4.3629000              1.0000000        
F   1   1.00
      1.5864000              1.0000000        
F   1   1.00
      0.5231000              1.0000000        
F   1   1.00
      0.1724900              1.0000000        
G   1   1.00
      4.0406000              1.0000000        
G   1   1.00
      1.4199000              1.0000000        
G   1   1.00
      0.4989600              1.0000000        
****
O     0 
S   1   1.00
  15330.0000000              1.000       
S   1   1.00
   2299.0000000              1.000       
S   1   1.00
    522.4000000              1.000       
S   1   1.00
    147.3000000              1.000       
S   1   1.00
     47.5500000              1.000       
S   1   1.00
     16.7600000              1.000       
S   1   1.00
      6.2070000              1.000       
S   1   1.00
      0.6882000              1.000       
S   1   1.00
      1.7520000              1.0000000        
S   1   1.00
      0.2384000              1.0000000        
S   1   1.00
      7.8450000              1.0000000        
S   1   1.00
     21.0320000              1.0000000        
S   1   1.00
      0.0737600              1.0000000        
P   1   1.00
     34.4600000              1.000        
P   1   1.00
      7.7490000              1.000        
P   1   1.00
      2.2800000              1.000        
P   1   1.00
      0.7156000              1.0000000        
P   1   1.00
      0.2140000              1.0000000        
P   1   1.00
     15.1590000              1.0000000        
P   1   1.00
     57.4370000              1.0000000        
P   1   1.00
      0.0597400              1.0000000        
D   1   1.00
      2.3140000              1.0000000        
D   1   1.00
      0.6450000              1.0000000        
D   1   1.00
     15.8580000              1.0000000        
D   1   1.00
      0.2140000              1.0000000        
F   1   1.00
      1.4280000              1.0000000        
F   1   1.00
      0.5000000              1.0000000        
****

Cr 0
QMC 3 10

6
1   13.07675203       14.00000000 
2   15.15807582     1258.15550380 
2    4.62785686      -98.60998187 
2   15.41136599    -6552.46055066 
2   15.38690637     5353.09061557 
3    5.24897308      183.07452839 

6
2    9.77680844   -91901.20809480 
2    9.95980111    96320.14803227 
2    8.62275214     3928.31359170 
2   12.29288144   -10977.62459544 
2   18.41316592    -1741.60409682 
2   16.38541961     4413.26493033 

6
2   12.00099996   -22156.17142851 
2   11.46524435    21551.07876111 
2   16.23852226     3703.78784703 
2   18.43861108    -1424.18632323 
2    8.88877941    -1964.93568469 
2    7.52644784      317.50498882 

6
2   11.10668370    -5435.29666496 
2    8.49801115     7350.69608766 
2   12.28065533     2443.80334995 
2    8.18853540    -5401.76770998 
2   14.34306836     3881.23075486 
2   15.24784181    -2855.87137953 
O 0
QMC 2 2

6
1   10.27717748        6.00000000 
2   15.99566749     1232.50197768 
2   10.46901775     -696.47008301 
2   14.63848010    -2654.22657081 
2   12.57591181     2101.67732548 
3    7.77739102       61.66306486 

6
2   12.39426073  -656683.37638839 
2   12.38126171   657858.57667068 
2    8.57671033      511.50098405 
2    9.89256508    -2579.54665641 
2   28.05641604      -57.68129584 
2   17.24753607      970.30940152 

6
2   14.78918914  -363027.24258186 
2   14.82014018   361852.52314043 
2   22.89622221    -1300.20069256 
2    8.51331893     -181.96869573 
2   11.48609758     2194.87589959 
2   27.22017524      451.19906206 

